Circuit: * C:\Users\gabri\Google Drive\ESP32\SIMULATIONS\MODELS\moc_308x_test.asc

Limiting rise time of source v2 to 0.001
Limiting fall time of source v2 to 0.001
Direct Newton iteration for .op point succeeded.

Date: Sun May 31 05:16:07 2020
Total elapsed time: 0.089 seconds.

tnom = 27
temp = 27
method = modified trap
totiter = 6235
traniter = 6209
tranpoints = 2353
accept = 1969
rejected = 384
matrix size = 54
fillins = 32
solver = Normal
Matrix Compiler1: 3.22 KB object code size  0.5/0.3/[0.1]
Matrix Compiler2: 4.17 KB object code size  0.3/0.4/[0.2]

