Circuit: * C:\Users\gabri\Google Drive\ESP32\SIMULATIONS\LM2596 9V\LM2596 - basic.asc

Questionable use of curly braces in "b§e_abmgate yint 0 v={if(v(a)>{{vthresh}}|v(b)>{{vthresh}}|v(c)>{{vthresh}},{{vdd}},{{vss}})}"
    Error: undefined symbol in: "if([v](a)>((vthresh))|v(b)>((vthresh))|v(c)>((vthresh)),((vdd)),((vss)))"
Questionable use of curly braces in "b§e_abmgate yint 0 v={if(v(a)>{{vthresh}},{{vdd}},{{vss}})}"
    Error: undefined symbol in: "if([v](a)>((vthresh)),((vdd)),((vss)))"
Direct Newton iteration for .op point succeeded.

Date: Sat May 09 23:09:20 2020
Total elapsed time: 45.438 seconds.

tnom = 27
temp = 27
method = modified trap
totiter = 3153790
traniter = 3153782
tranpoints = 961981
accept = 719431
rejected = 242550
matrix size = 103
fillins = 49
solver = Normal
Thread vector: 6.1/3.8[2] 1.2/1.1[2] 1.8/1.0[2] 0.2/0.7[1]  2592/500
Matrix Compiler1: 4.80 KB object code size  0.9/0.5/[0.3]
Matrix Compiler2: 7.13 KB object code size  0.4/0.8/[0.3]

