Circuit: * C:\Users\gabri\GoogleDrive\ESP32\SIMULATIONS\LM2596 4V\LM2596 - 4V.asc

Questionable use of curly braces in "b§e_abmgate yint 0 v={if(v(a)>{{vthresh}}|v(b)>{{vthresh}}|v(c)>{{vthresh}},{{vdd}},{{vss}})}"
    Error: undefined symbol in: "if([v](a)>((vthresh))|v(b)>((vthresh))|v(c)>((vthresh)),((vdd)),((vss)))"
Questionable use of curly braces in "b§e_abmgate yint 0 v={if(v(a)>{{vthresh}},{{vdd}},{{vss}})}"
    Error: undefined symbol in: "if([v](a)>((vthresh)),((vdd)),((vss)))"
Direct Newton iteration for .op point succeeded.
Heightened Def Con from 0.0100507 to 0.0100507
Heightened Def Con from 0.0101042 to 0.0101042
Heightened Def Con from 0.0101242 to 0.0101242
Heightened Def Con from 0.0101443 to 0.0101443
Heightened Def Con from 0.010171 to 0.010171
Heightened Def Con from 0.0101978 to 0.0101978
Heightened Def Con from 0.0102111 to 0.0102111
Heightened Def Con from 0.0102446 to 0.0102446
Heightened Def Con from 0.0103047 to 0.0103047
Heightened Def Con from 0.0103181 to 0.0103181
Heightened Def Con from 0.0104919 to 0.0104919
Heightened Def Con from 0.0104986 to 0.0104986
Heightened Def Con from 0.010552 to 0.010552
Heightened Def Con from 0.0105654 to 0.0105654
Heightened Def Con from 0.0106323 to 0.0106323
Heightened Def Con from 0.0107392 to 0.0107392
Heightened Def Con from 0.0107659 to 0.0107659
Heightened Def Con from 0.0108461 to 0.0108461
Heightened Def Con from 0.0108863 to 0.0108863
Heightened Def Con from 0.0109865 to 0.0109865
Heightened Def Con from 0.0110801 to 0.0110801
Heightened Def Con from 0.0111937 to 0.0111937
Heightened Def Con from 0.0112673 to 0.0112673
Heightened Def Con from 0.0112873 to 0.0112873
Heightened Def Con from 0.0113408 to 0.0113408
Heightened Def Con from 0.0115547 to 0.0115547
Heightened Def Con from 0.0115881 to 0.0115881
Heightened Def Con from 0.0117686 to 0.0117686
Heightened Def Con from 0.011909 to 0.011909
Heightened Def Con from 0.0119825 to 0.0119825
Heightened Def Con from 0.0120827 to 0.0120827
Heightened Def Con from 0.0121563 to 0.0121563
Heightened Def Con from 0.0122031 to 0.0122031
Heightened Def Con from 0.0122766 to 0.0122766
Heightened Def Con from 0.0123167 to 0.0123167
Heightened Def Con from 0.0125239 to 0.0125239
Heightened Def Con from 0.012544 to 0.012544
Heightened Def Con from 0.012564 to 0.012564
Heightened Def Con from 0.0126375 to 0.0126375
Heightened Def Con from 0.012818 to 0.012818
Heightened Def Con from 0.0128982 to 0.0128982
Heightened Def Con from 0.0129183 to 0.0129183
Heightened Def Con from 0.0129851 to 0.0129851
Heightened Def Con from 0.0129918 to 0.0129918
Heightened Def Con from 0.0130119 to 0.0130119
Heightened Def Con from 0.0130587 to 0.0130587
Heightened Def Con from 0.0131121 to 0.0131121
Heightened Def Con from 0.0131255 to 0.0131255
Heightened Def Con from 0.0131456 to 0.0131456
Heightened Def Con from 0.0132792 to 0.0132792
Heightened Def Con from 0.0135533 to 0.0135533
Heightened Def Con from 0.0135934 to 0.0135934
Heightened Def Con from 0.0136001 to 0.0136001
Heightened Def Con from 0.0136202 to 0.0136202
Heightened Def Con from 0.0136335 to 0.0136335
Heightened Def Con from 0.0136469 to 0.0136469
Heightened Def Con from 0.0139276 to 0.0139276
Heightened Def Con from 0.0139611 to 0.0139611
Heightened Def Con from 0.0139677 to 0.0139677
Heightened Def Con from 0.0140145 to 0.0140145
Heightened Def Con from 0.0141282 to 0.0141282
Heightened Def Con from 0.014469 to 0.014469
Heightened Def Con from 0.0145091 to 0.0145091
Heightened Def Con from 0.0145225 to 0.0145225
Heightened Def Con from 0.0146963 to 0.0146963
Heightened Def Con from 0.014703 to 0.014703
Heightened Def Con from 0.0147297 to 0.0147297
Heightened Def Con from 0.0147364 to 0.0147364
Heightened Def Con from 0.0147565 to 0.0147565
Heightened Def Con from 0.0148233 to 0.0148233
Heightened Def Con from 0.0148701 to 0.0148701
Heightened Def Con from 0.0149236 to 0.0149236
Heightened Def Con from 0.014957 to 0.014957
Heightened Def Con from 0.0149771 to 0.0149771
Heightened Def Con from 0.0150372 to 0.0150372
Heightened Def Con from 0.0150439 to 0.0150439
Heightened Def Con from 0.0151174 to 0.0151174
Heightened Def Con from 0.0151909 to 0.0151909
Heightened Def Con from 0.015211 to 0.015211
Heightened Def Con from 0.0152177 to 0.0152177
Heightened Def Con from 0.0152979 to 0.0152979
Heightened Def Con from 0.0154249 to 0.0154249
Heightened Def Con from 0.0156321 to 0.0156321
Heightened Def Con from 0.0156989 to 0.0156989
Heightened Def Con from 0.0157123 to 0.0157123
Heightened Def Con from 0.015719 to 0.015719
Heightened Def Con from 0.015739 to 0.015739
Heightened Def Con from 0.0157725 to 0.0157725
Heightened Def Con from 0.0158727 to 0.0158727
Heightened Def Con from 0.0158794 to 0.0158794
Heightened Def Con from 0.0159463 to 0.0159463
Heightened Def Con from 0.0159997 to 0.0159997
Heightened Def Con from 0.0160198 to 0.0160198
Heightened Def Con from 0.0160465 to 0.0160465
Heightened Def Con from 0.0160866 to 0.0160866
Heightened Def Con from 0.0161936 to 0.0161936
Heightened Def Con from 0.0163072 to 0.0163072
Heightened Def Con from 0.0163339 to 0.0163339
Heightened Def Con from 0.016354 to 0.016354
Heightened Def Con from 0.0163874 to 0.0163874
Heightened Def Con from 0.0165612 to 0.0165612
Heightened Def Con from 0.0165746 to 0.0165746
Heightened Def Con from 0.0165879 to 0.0165879
Heightened Def Con from 0.0166013 to 0.0166013
Heightened Def Con from 0.0167283 to 0.0167283
Heightened Def Con from 0.0167617 to 0.0167617
Heightened Def Con from 0.0168219 to 0.0168219
Heightened Def Con from 0.0168286 to 0.0168286
Heightened Def Con from 0.0170224 to 0.0170224
Heightened Def Con from 0.0172096 to 0.0172096
Heightened Def Con from 0.0172163 to 0.0172163
Heightened Def Con from 0.017243 to 0.017243
Heightened Def Con from 0.0172564 to 0.0172564
Heightened Def Con from 0.0172631 to 0.0172631
Heightened Def Con from 0.0172831 to 0.0172831
Heightened Def Con from 0.0173433 to 0.0173433
Heightened Def Con from 0.0174034 to 0.0174034
Heightened Def Con from 0.0174369 to 0.0174369
Heightened Def Con from 0.0174436 to 0.0174436
Heightened Def Con from 0.0174569 to 0.0174569
Heightened Def Con from 0.0174703 to 0.0174703
Heightened Def Con from 0.017477 to 0.017477
Heightened Def Con from 0.0175505 to 0.0175505
Heightened Def Con from 0.0175706 to 0.0175706
Heightened Def Con from 0.0176441 to 0.0176441
Heightened Def Con from 0.0176641 to 0.0176641
Heightened Def Con from 0.0176976 to 0.0176976
Heightened Def Con from 0.0178045 to 0.0178045
Heightened Def Con from 0.0179115 to 0.0179115
Heightened Def Con from 0.0180118 to 0.0180118
Heightened Def Con from 0.0181187 to 0.0181187
Heightened Def Con from 0.0181321 to 0.0181321
Heightened Def Con from 0.0181521 to 0.0181521
Heightened Def Con from 0.0182324 to 0.0182324
Heightened Def Con from 0.0182925 to 0.0182925
Heightened Def Con from 0.0183126 to 0.0183126
Heightened Def Con from 0.018346 to 0.018346
Heightened Def Con from 0.0183928 to 0.0183928
Heightened Def Con from 0.0184262 to 0.0184262
Heightened Def Con from 0.0185666 to 0.0185666
Heightened Def Con from 0.0186067 to 0.0186067
Heightened Def Con from 0.0186267 to 0.0186267
Heightened Def Con from 0.0186669 to 0.0186669
Heightened Def Con from 0.018707 to 0.018707
Heightened Def Con from 0.0187738 to 0.0187738
Heightened Def Con from 0.0187938 to 0.0187938
Heightened Def Con from 0.0188473 to 0.0188473
Heightened Def Con from 0.0189342 to 0.0189342
Heightened Def Con from 0.0189944 to 0.0189944
Heightened Def Con from 0.0190077 to 0.0190077
Heightened Def Con from 0.0190545 to 0.0190545
Heightened Def Con from 0.0190679 to 0.0190679
Heightened Def Con from 0.0191414 to 0.0191414
Heightened Def Con from 0.0191815 to 0.0191815
Heightened Def Con from 0.0192551 to 0.0192551
Heightened Def Con from 0.0192617 to 0.0192617
Heightened Def Con from 0.0192684 to 0.0192684
Heightened Def Con from 0.0193152 to 0.0193152
Heightened Def Con from 0.0193821 to 0.0193821
Heightened Def Con from 0.0194556 to 0.0194556
Heightened Def Con from 0.0194623 to 0.0194623
Heightened Def Con from 0.0195224 to 0.0195224
Heightened Def Con from 0.0195692 to 0.0195692
Heightened Def Con from 0.019596 to 0.019596
Heightened Def Con from 0.0196561 to 0.0196561
Heightened Def Con from 0.0197096 to 0.0197096
Heightened Def Con from 0.0198232 to 0.0198232
Heightened Def Con from 0.0198967 to 0.0198967
Heightened Def Con from 0.0199636 to 0.0199636
Heightened Def Con from 0.0199769 to 0.0199769
Heightened Def Con from 0.0200505 to 0.0200505
Heightened Def Con from 0.0201574 to 0.0201574
Heightened Def Con from 0.0201842 to 0.0201842
Heightened Def Con from 0.020251 to 0.020251
Heightened Def Con from 0.0202978 to 0.0202978
Heightened Def Con from 0.020378 to 0.020378
Heightened Def Con from 0.0203981 to 0.0203981
Heightened Def Con from 0.0204114 to 0.0204114
Heightened Def Con from 0.0206119 to 0.0206119
Heightened Def Con from 0.0206186 to 0.0206186
Heightened Def Con from 0.0206253 to 0.0206253
Heightened Def Con from 0.0206654 to 0.0206654
Heightened Def Con from 0.0206922 to 0.0206922
Heightened Def Con from 0.0207055 to 0.0207055
Heightened Def Con from 0.0207991 to 0.0207991
Heightened Def Con from 0.0209997 to 0.0209997
Heightened Def Con from 0.0210063 to 0.0210063
Heightened Def Con from 0.0210197 to 0.0210197
Heightened Def Con from 0.0210331 to 0.0210331
Heightened Def Con from 0.0210866 to 0.0210866
Heightened Def Con from 0.0211267 to 0.0211267
Heightened Def Con from 0.0213138 to 0.0213138
Heightened Def Con from 0.0213205 to 0.0213205
Heightened Def Con from 0.0213339 to 0.0213339
Heightened Def Con from 0.0213539 to 0.0213539
Heightened Def Con from 0.0213807 to 0.0213807
Heightened Def Con from 0.021481 to 0.021481
Heightened Def Con from 0.021501 to 0.021501
Heightened Def Con from 0.0215211 to 0.0215211
Heightened Def Con from 0.0215679 to 0.0215679
Heightened Def Con from 0.0216213 to 0.0216213
Heightened Def Con from 0.0217417 to 0.0217417
Heightened Def Con from 0.0217483 to 0.0217483
Heightened Def Con from 0.0220692 to 0.0220692
Heightened Def Con from 0.0222363 to 0.0222363
Heightened Def Con from 0.0222496 to 0.0222496
Heightened Def Con from 0.0222563 to 0.0222563
Heightened Def Con from 0.0222764 to 0.0222764
Heightened Def Con from 0.0223098 to 0.0223098
Heightened Def Con from 0.0223232 to 0.0223232
Heightened Def Con from 0.0223299 to 0.0223299
Heightened Def Con from 0.02239 to 0.02239
Heightened Def Con from 0.0224635 to 0.0224635
Heightened Def Con from 0.0225371 to 0.0225371
Heightened Def Con from 0.0225438 to 0.0225438
Heightened Def Con from 0.0227777 to 0.0227777
Heightened Def Con from 0.0227844 to 0.0227844
Heightened Def Con from 0.0228245 to 0.0228245
Heightened Def Con from 0.0228579 to 0.0228579
Heightened Def Con from 0.0229582 to 0.0229582
Heightened Def Con from 0.0229716 to 0.0229716
Heightened Def Con from 0.0229849 to 0.0229849
Heightened Def Con from 0.0229916 to 0.0229916
Heightened Def Con from 0.0230852 to 0.0230852
Heightened Def Con from 0.023132 to 0.023132
Heightened Def Con from 0.0233191 to 0.0233191
Heightened Def Con from 0.0233793 to 0.0233793
Heightened Def Con from 0.0234127 to 0.0234127
Heightened Def Con from 0.0234395 to 0.0234395
Heightened Def Con from 0.0235665 to 0.0235665
Heightened Def Con from 0.0235932 to 0.0235932
Heightened Def Con from 0.0236801 to 0.0236801
Heightened Def Con from 0.0237804 to 0.0237804
Heightened Def Con from 0.0238205 to 0.0238205
Heightened Def Con from 0.0238673 to 0.0238673
Heightened Def Con from 0.0239408 to 0.0239408
Heightened Def Con from 0.024021 to 0.024021
Heightened Def Con from 0.0240344 to 0.0240344
Heightened Def Con from 0.0240745 to 0.0240745
Heightened Def Con from 0.0241012 to 0.0241012
Heightened Def Con from 0.0241547 to 0.0241547
Heightened Def Con from 0.0241814 to 0.0241814
Heightened Def Con from 0.0242148 to 0.0242148
Heightened Def Con from 0.0242817 to 0.0242817
Heightened Def Con from 0.0243285 to 0.0243285
Heightened Def Con from 0.024382 to 0.024382
Heightened Def Con from 0.0243886 to 0.0243886
Heightened Def Con from 0.024402 to 0.024402
Heightened Def Con from 0.0244354 to 0.0244354
Heightened Def Con from 0.0244555 to 0.0244555
Heightened Def Con from 0.024529 to 0.024529
Heightened Def Con from 0.0246092 to 0.0246092
Heightened Def Con from 0.0246159 to 0.0246159
Heightened Def Con from 0.0246761 to 0.0246761
Heightened Def Con from 0.0246961 to 0.0246961
Heightened Def Con from 0.0247028 to 0.0247028
Heightened Def Con from 0.0247763 to 0.0247763
Heightened Def Con from 0.0249367 to 0.0249367
Heightened Def Con from 0.0249835 to 0.0249835
Heightened Def Con from 0.0250036 to 0.0250036
Heightened Def Con from 0.025017 to 0.025017
Heightened Def Con from 0.0251373 to 0.0251373
Heightened Def Con from 0.025164 to 0.025164
Heightened Def Con from 0.0252041 to 0.0252041
Heightened Def Con from 0.0252175 to 0.0252175
Heightened Def Con from 0.0252776 to 0.0252776
Heightened Def Con from 0.0253712 to 0.0253712
Heightened Def Con from 0.0253846 to 0.0253846
Heightened Def Con from 0.0254247 to 0.0254247
Heightened Def Con from 0.0254848 to 0.0254848
Heightened Def Con from 0.0255383 to 0.0255383
Heightened Def Con from 0.0256252 to 0.0256252
Heightened Def Con from 0.0256386 to 0.0256386
Heightened Def Con from 0.0256453 to 0.0256453
Heightened Def Con from 0.025692 to 0.025692
Heightened Def Con from 0.0257054 to 0.0257054
Heightened Def Con from 0.0257656 to 0.0257656
Heightened Def Con from 0.0257723 to 0.0257723
Heightened Def Con from 0.0257923 to 0.0257923
Heightened Def Con from 0.0258458 to 0.0258458
Heightened Def Con from 0.0260396 to 0.0260396
Heightened Def Con from 0.0261734 to 0.0261734
Heightened Def Con from 0.02618 to 0.02618
Heightened Def Con from 0.0261867 to 0.0261867
Heightened Def Con from 0.0262001 to 0.0262001
Heightened Def Con from 0.026287 to 0.026287
Heightened Def Con from 0.0263939 to 0.0263939
Heightened Def Con from 0.0264741 to 0.0264741
Heightened Def Con from 0.0265009 to 0.0265009
Heightened Def Con from 0.0265209 to 0.0265209
Heightened Def Con from 0.0265744 to 0.0265744
Heightened Def Con from 0.0265878 to 0.0265878
Heightened Def Con from 0.0266078 to 0.0266078
Heightened Def Con from 0.0266212 to 0.0266212
Heightened Def Con from 0.0266546 to 0.0266546
Heightened Def Con from 0.0266613 to 0.0266613
Heightened Def Con from 0.0267215 to 0.0267215
Heightened Def Con from 0.0267281 to 0.0267281
Heightened Def Con from 0.0267749 to 0.0267749
Heightened Def Con from 0.0269153 to 0.0269153
Heightened Def Con from 0.0269621 to 0.0269621
Heightened Def Con from 0.0270557 to 0.0270557
Heightened Def Con from 0.0270824 to 0.0270824
Heightened Def Con from 0.0270958 to 0.0270958
Heightened Def Con from 0.0271827 to 0.0271827
Heightened Def Con from 0.0272361 to 0.0272361
Heightened Def Con from 0.027323 to 0.027323
Heightened Def Con from 0.0273765 to 0.0273765
Heightened Def Con from 0.0273966 to 0.0273966
Heightened Def Con from 0.0274033 to 0.0274033
Heightened Def Con from 0.0275771 to 0.0275771
Heightened Def Con from 0.0275837 to 0.0275837
Heightened Def Con from 0.0275904 to 0.0275904
Heightened Def Con from 0.0276773 to 0.0276773
Heightened Def Con from 0.0277442 to 0.0277442
Heightened Def Con from 0.0279113 to 0.0279113
Heightened Def Con from 0.027938 to 0.027938
Heightened Def Con from 0.0279781 to 0.0279781
Heightened Def Con from 0.0280049 to 0.0280049
Heightened Def Con from 0.0280316 to 0.0280316
Heightened Def Con from 0.0280517 to 0.0280517
Heightened Def Con from 0.0280784 to 0.0280784
Heightened Def Con from 0.0282254 to 0.0282254
Heightened Def Con from 0.0282923 to 0.0282923
Heightened Def Con from 0.0283658 to 0.0283658
Heightened Def Con from 0.0283859 to 0.0283859
Heightened Def Con from 0.0284059 to 0.0284059
Heightened Def Con from 0.0284861 to 0.0284861
Heightened Def Con from 0.0285196 to 0.0285196
Heightened Def Con from 0.0285998 to 0.0285998
Heightened Def Con from 0.0286198 to 0.0286198
Heightened Def Con from 0.0286934 to 0.0286934
Heightened Def Con from 0.0287535 to 0.0287535
Heightened Def Con from 0.0288738 to 0.0288738
Heightened Def Con from 0.0288805 to 0.0288805
Heightened Def Con from 0.0288939 to 0.0288939
Heightened Def Con from 0.0289607 to 0.0289607
Heightened Def Con from 0.0292615 to 0.0292615
Heightened Def Con from 0.0293217 to 0.0293217
Heightened Def Con from 0.0294086 to 0.0294086
Heightened Def Con from 0.0294755 to 0.0294755
Heightened Def Con from 0.0295222 to 0.0295222
Heightened Def Con from 0.0295289 to 0.0295289
Heightened Def Con from 0.0295356 to 0.0295356
Heightened Def Con from 0.0296359 to 0.0296359
Heightened Def Con from 0.0297027 to 0.0297027
Heightened Def Con from 0.0297295 to 0.0297295
Heightened Def Con from 0.0297495 to 0.0297495
Heightened Def Con from 0.0298298 to 0.0298298
Heightened Def Con from 0.0299033 to 0.0299033
Heightened Def Con from 0.0300637 to 0.0300637
Heightened Def Con from 0.0301907 to 0.0301907
Heightened Def Con from 0.0302108 to 0.0302108
Heightened Def Con from 0.0302642 to 0.0302642
Heightened Def Con from 0.0302776 to 0.0302776
Heightened Def Con from 0.0303912 to 0.0303912
Heightened Def Con from 0.0304314 to 0.0304314
Heightened Def Con from 0.0306586 to 0.0306586
Heightened Def Con from 0.0307388 to 0.0307388
Heightened Def Con from 0.0307455 to 0.0307455
Heightened Def Con from 0.0307656 to 0.0307656
Heightened Def Con from 0.0307789 to 0.0307789
Heightened Def Con from 0.0308124 to 0.0308124
Heightened Def Con from 0.0308191 to 0.0308191
Heightened Def Con from 0.0308592 to 0.0308592
Heightened Def Con from 0.0309126 to 0.0309126
Heightened Def Con from 0.0309327 to 0.0309327
Heightened Def Con from 0.0310263 to 0.0310263
Heightened Def Con from 0.0310396 to 0.0310396
Heightened Def Con from 0.0310463 to 0.0310463
Heightened Def Con from 0.0310597 to 0.0310597
Heightened Def Con from 0.0311199 to 0.0311199
Heightened Def Con from 0.0312134 to 0.0312134
Heightened Def Con from 0.031434 to 0.031434
Heightened Def Con from 0.0314474 to 0.0314474
Heightened Def Con from 0.0315009 to 0.0315009
Heightened Def Con from 0.031541 to 0.031541
Heightened Def Con from 0.0315811 to 0.0315811
Heightened Def Con from 0.0316412 to 0.0316412
Heightened Def Con from 0.0317348 to 0.0317348
Heightened Def Con from 0.0318351 to 0.0318351
Heightened Def Con from 0.0318484 to 0.0318484
Heightened Def Con from 0.0319955 to 0.0319955
Heightened Def Con from 0.032069 to 0.032069
Heightened Def Con from 0.0321426 to 0.0321426
Heightened Def Con from 0.0321893 to 0.0321893
Heightened Def Con from 0.0322228 to 0.0322228
Heightened Def Con from 0.0322762 to 0.0322762
Heightened Def Con from 0.0323163 to 0.0323163
Heightened Def Con from 0.0324099 to 0.0324099
Heightened Def Con from 0.0324567 to 0.0324567
Heightened Def Con from 0.0324701 to 0.0324701
Heightened Def Con from 0.0325503 to 0.0325503
Heightened Def Con from 0.0325703 to 0.0325703
Heightened Def Con from 0.032577 to 0.032577
Heightened Def Con from 0.0325837 to 0.0325837
Heightened Def Con from 0.0325904 to 0.0325904
Heightened Def Con from 0.0326171 to 0.0326171
Heightened Def Con from 0.0328043 to 0.0328043
Heightened Def Con from 0.0328578 to 0.0328578
Heightened Def Con from 0.0329246 to 0.0329246
Heightened Def Con from 0.0331385 to 0.0331385
Heightened Def Con from 0.0332254 to 0.0332254
Heightened Def Con from 0.0333591 to 0.0333591
Heightened Def Con from 0.0333658 to 0.0333658
Heightened Def Con from 0.0334126 to 0.0334126
Heightened Def Con from 0.0334193 to 0.0334193
Heightened Def Con from 0.0334661 to 0.0334661
Heightened Def Con from 0.0334861 to 0.0334861
Heightened Def Con from 0.0335062 to 0.0335062
Heightened Def Con from 0.0336064 to 0.0336064
Heightened Def Con from 0.0336265 to 0.0336265
Heightened Def Con from 0.0336465 to 0.0336465
Heightened Def Con from 0.0336666 to 0.0336666
Heightened Def Con from 0.0338404 to 0.0338404
Heightened Def Con from 0.0338738 to 0.0338738
Heightened Def Con from 0.0339072 to 0.0339072
Heightened Def Con from 0.0339139 to 0.0339139
Heightened Def Con from 0.0339674 to 0.0339674
Heightened Def Con from 0.0339941 to 0.0339941
Heightened Def Con from 0.0340142 to 0.0340142
Heightened Def Con from 0.0341078 to 0.0341078
Heightened Def Con from 0.0341546 to 0.0341546
Heightened Def Con from 0.0341947 to 0.0341947
Heightened Def Con from 0.0343016 to 0.0343016
Heightened Def Con from 0.0343283 to 0.0343283
Heightened Def Con from 0.0343417 to 0.0343417
Heightened Def Con from 0.0343885 to 0.0343885
Heightened Def Con from 0.0345556 to 0.0345556
Heightened Def Con from 0.0345757 to 0.0345757
Heightened Def Con from 0.034589 to 0.034589
Heightened Def Con from 0.0346692 to 0.0346692
Heightened Def Con from 0.0346826 to 0.0346826
Heightened Def Con from 0.0347361 to 0.0347361
Heightened Def Con from 0.034823 to 0.034823
Heightened Def Con from 0.0348698 to 0.0348698
Heightened Def Con from 0.0349099 to 0.0349099
Heightened Def Con from 0.0349299 to 0.0349299
Heightened Def Con from 0.0349567 to 0.0349567
Heightened Def Con from 0.0350636 to 0.0350636
Heightened Def Con from 0.0351238 to 0.0351238
Heightened Def Con from 0.0351639 to 0.0351639
Heightened Def Con from 0.0351773 to 0.0351773
Heightened Def Con from 0.0351839 to 0.0351839
Heightened Def Con from 0.035204 to 0.035204
Heightened Def Con from 0.0353377 to 0.0353377
Heightened Def Con from 0.0354981 to 0.0354981
Heightened Def Con from 0.0355115 to 0.0355115
Heightened Def Con from 0.0355449 to 0.0355449
Heightened Def Con from 0.0356318 to 0.0356318
Heightened Def Con from 0.0358391 to 0.0358391
Heightened Def Con from 0.0358792 to 0.0358792
Heightened Def Con from 0.0358992 to 0.0358992
Heightened Def Con from 0.035926 to 0.035926
Heightened Def Con from 0.0359527 to 0.0359527
Heightened Def Con from 0.0359928 to 0.0359928
Heightened Def Con from 0.0359995 to 0.0359995
Heightened Def Con from 0.0361265 to 0.0361265
Heightened Def Con from 0.0361599 to 0.0361599
Heightened Def Con from 0.0361799 to 0.0361799
Heightened Def Con from 0.0361933 to 0.0361933
Heightened Def Con from 0.0362067 to 0.0362067
Heightened Def Con from 0.0362134 to 0.0362134
Heightened Def Con from 0.0362401 to 0.0362401
Heightened Def Con from 0.0362602 to 0.0362602
Heightened Def Con from 0.0362668 to 0.0362668
Heightened Def Con from 0.0363337 to 0.0363337
Heightened Def Con from 0.0363738 to 0.0363738
Heightened Def Con from 0.0364874 to 0.0364874
Heightened Def Con from 0.0366211 to 0.0366211
Heightened Def Con from 0.0366479 to 0.0366479
Heightened Def Con from 0.0366746 to 0.0366746
Heightened Def Con from 0.036688 to 0.036688
Heightened Def Con from 0.0367548 to 0.0367548
Heightened Def Con from 0.0367748 to 0.0367749
Heightened Def Con from 0.0368083 to 0.0368083
Heightened Def Con from 0.036942 to 0.036942
Heightened Def Con from 0.0371024 to 0.0371024
Heightened Def Con from 0.0371158 to 0.0371158
Heightened Def Con from 0.0371626 to 0.0371626
Heightened Def Con from 0.0372695 to 0.0372695
Heightened Def Con from 0.0372762 to 0.0372762
Heightened Def Con from 0.0374299 to 0.0374299
Heightened Def Con from 0.0374834 to 0.0374834
Heightened Def Con from 0.0375636 to 0.0375636
Heightened Def Con from 0.0376906 to 0.0376906
Heightened Def Con from 0.037704 to 0.037704
Heightened Def Con from 0.0377307 to 0.0377307
Heightened Def Con from 0.0378109 to 0.0378109
Heightened Def Con from 0.0378443 to 0.0378443
Heightened Def Con from 0.0379312 to 0.0379312
Heightened Def Con from 0.0379379 to 0.0379379
Heightened Def Con from 0.0379647 to 0.0379647
Heightened Def Con from 0.0379847 to 0.0379847
Heightened Def Con from 0.0380048 to 0.0380048
Heightened Def Con from 0.0381251 to 0.0381251
Heightened Def Con from 0.0382454 to 0.0382454
Heightened Def Con from 0.0384526 to 0.0384526
Heightened Def Con from 0.0385328 to 0.0385328
Heightened Def Con from 0.0387066 to 0.0387066
Heightened Def Con from 0.0388002 to 0.0388002
Heightened Def Con from 0.0388336 to 0.0388336
Heightened Def Con from 0.0389873 to 0.0389873
Heightened Def Con from 0.038994 to 0.038994
Heightened Def Con from 0.0390141 to 0.0390141
Heightened Def Con from 0.0390542 to 0.0390542
Heightened Def Con from 0.0390742 to 0.0390742
Heightened Def Con from 0.0390943 to 0.0390943
Heightened Def Con from 0.0391544 to 0.0391544
Heightened Def Con from 0.0392146 to 0.0392146
Heightened Def Con from 0.0392881 to 0.0392881
Heightened Def Con from 0.0393149 to 0.0393149
Heightened Def Con from 0.0393216 to 0.0393216
Heightened Def Con from 0.0393483 to 0.0393483
Heightened Def Con from 0.0394084 to 0.0394084
Heightened Def Con from 0.0394218 to 0.0394218
Heightened Def Con from 0.0394285 to 0.0394285
Heightened Def Con from 0.0394753 to 0.0394753
Heightened Def Con from 0.0395488 to 0.0395488
Heightened Def Con from 0.0395756 to 0.0395756
Heightened Def Con from 0.0395822 to 0.0395822
Heightened Def Con from 0.0395889 to 0.0395889
Heightened Def Con from 0.0396491 to 0.0396491
Heightened Def Con from 0.0397092 to 0.0397092
Heightened Def Con from 0.0397694 to 0.0397694
Heightened Def Con from 0.0397761 to 0.0397761
Heightened Def Con from 0.0397961 to 0.0397961
Heightened Def Con from 0.0398697 to 0.0398697
Heightened Def Con from 0.0398897 to 0.0398897
Heightened Def Con from 0.0399165 to 0.0399165
Heightened Def Con from 0.0400101 to 0.0400101
Heightened Def Con from 0.0400635 to 0.0400635
Heightened Def Con from 0.0401304 to 0.0401304
Heightened Def Con from 0.0401638 to 0.0401638
Heightened Def Con from 0.0401705 to 0.0401705
Heightened Def Con from 0.0401772 to 0.0401772
Heightened Def Con from 0.0401839 to 0.0401839
Heightened Def Con from 0.0402173 to 0.0402173
Heightened Def Con from 0.0402708 to 0.0402708
Heightened Def Con from 0.0403175 to 0.0403175
Heightened Def Con from 0.0404379 to 0.0404379
Heightened Def Con from 0.0404445 to 0.0404445
Heightened Def Con from 0.0405582 to 0.0405582
Heightened Def Con from 0.0405849 to 0.0405849
Heightened Def Con from 0.0405916 to 0.0405916
Heightened Def Con from 0.040625 to 0.040625
Heightened Def Con from 0.0407387 to 0.0407387
Heightened Def Con from 0.040752 to 0.040752
Heightened Def Con from 0.040879 to 0.040879
Heightened Def Con from 0.0409392 to 0.0409392
Heightened Def Con from 0.0409993 to 0.0409993
Heightened Def Con from 0.0411531 to 0.0411531
Heightened Def Con from 0.0412333 to 0.0412333
Heightened Def Con from 0.0412467 to 0.0412467
Heightened Def Con from 0.0412534 to 0.0412534
Heightened Def Con from 0.0412667 to 0.0412667
Heightened Def Con from 0.0413937 to 0.0413937
Heightened Def Con from 0.0414138 to 0.0414138
Heightened Def Con from 0.0415074 to 0.0415074
Heightened Def Con from 0.0415408 to 0.0415408
Heightened Def Con from 0.041621 to 0.041621
Heightened Def Con from 0.0418683 to 0.0418683
Heightened Def Con from 0.0418817 to 0.0418817
Heightened Def Con from 0.0420956 to 0.0420956
Heightened Def Con from 0.0421023 to 0.0421023
Heightened Def Con from 0.0422627 to 0.0422627
Heightened Def Con from 0.0424633 to 0.0424633
Heightened Def Con from 0.0424699 to 0.0424699
Heightened Def Con from 0.0425034 to 0.0425034
Heightened Def Con from 0.0425568 to 0.0425568
Heightened Def Con from 0.0425903 to 0.0425903
Heightened Def Con from 0.0425969 to 0.0425969
Heightened Def Con from 0.0426036 to 0.0426036
Heightened Def Con from 0.0426304 to 0.0426304
Heightened Def Con from 0.0426504 to 0.0426504
Heightened Def Con from 0.0427106 to 0.0427106
Heightened Def Con from 0.0427239 to 0.0427239
Heightened Def Con from 0.042744 to 0.042744
Heightened Def Con from 0.0428509 to 0.0428509
Heightened Def Con from 0.042871 to 0.042871
Heightened Def Con from 0.042891 to 0.042891
Heightened Def Con from 0.0429044 to 0.0429044
Heightened Def Con from 0.0429178 to 0.0429178
Heightened Def Con from 0.0429579 to 0.0429579
Heightened Def Con from 0.0430715 to 0.0430715
Heightened Def Con from 0.0431785 to 0.0431785
Heightened Def Con from 0.0432587 to 0.0432587
Heightened Def Con from 0.0432854 to 0.0432854
Heightened Def Con from 0.0433523 to 0.0433523
Heightened Def Con from 0.0433656 to 0.0433656
Heightened Def Con from 0.043379 to 0.043379
Heightened Def Con from 0.0434926 to 0.0434926
Heightened Def Con from 0.0435127 to 0.0435127
Heightened Def Con from 0.0435862 to 0.0435862
Heightened Def Con from 0.0437065 to 0.0437065
Heightened Def Con from 0.0437734 to 0.0437734
Heightened Def Con from 0.0438803 to 0.0438803
Heightened Def Con from 0.0439672 to 0.0439672
Heightened Def Con from 0.0440006 to 0.0440006
Heightened Def Con from 0.0440474 to 0.0440474
Heightened Def Con from 0.0440742 to 0.0440742
Heightened Def Con from 0.0441076 to 0.0441076
Heightened Def Con from 0.0441343 to 0.0441343
Heightened Def Con from 0.0442145 to 0.0442145
Heightened Def Con from 0.044268 to 0.044268
Heightened Def Con from 0.0442948 to 0.0442948
Heightened Def Con from 0.0444485 to 0.0444485
Heightened Def Con from 0.0445086 to 0.0445086
Heightened Def Con from 0.0445287 to 0.0445287
Heightened Def Con from 0.0445354 to 0.0445354
Heightened Def Con from 0.0445487 to 0.0445487
Heightened Def Con from 0.0446223 to 0.0446223
Heightened Def Con from 0.0446423 to 0.0446423
Heightened Def Con from 0.0446691 to 0.0446691
Heightened Def Con from 0.0447092 to 0.0447092
Heightened Def Con from 0.0447159 to 0.0447159
Heightened Def Con from 0.0447292 to 0.0447292
Heightened Def Con from 0.0447359 to 0.0447359
Heightened Def Con from 0.0447493 to 0.0447493
Heightened Def Con from 0.0448495 to 0.0448495
Heightened Def Con from 0.0450167 to 0.0450167
Heightened Def Con from 0.0450434 to 0.0450434
Heightened Def Con from 0.0450568 to 0.0450568
Heightened Def Con from 0.045137 to 0.045137
Heightened Def Con from 0.0451637 to 0.0451637
Heightened Def Con from 0.0452372 to 0.0452372
Heightened Def Con from 0.045264 to 0.045264
Heightened Def Con from 0.0453776 to 0.0453776
Heightened Def Con from 0.0454512 to 0.0454512
Heightened Def Con from 0.0454779 to 0.0454779
Heightened Def Con from 0.0455514 to 0.0455514
Heightened Def Con from 0.0455848 to 0.0455848
Heightened Def Con from 0.0455982 to 0.0455982
Heightened Def Con from 0.0456116 to 0.0456116
Heightened Def Con from 0.0456249 to 0.0456249
Heightened Def Con from 0.0456584 to 0.0456584
Heightened Def Con from 0.0457252 to 0.0457252
Heightened Def Con from 0.0457319 to 0.0457319
Heightened Def Con from 0.045879 to 0.045879
Heightened Def Con from 0.0459191 to 0.0459191
Heightened Def Con from 0.0459324 to 0.0459324
Heightened Def Con from 0.0459859 to 0.0459859
Heightened Def Con from 0.0460126 to 0.0460126
Heightened Def Con from 0.0460728 to 0.0460728
Heightened Def Con from 0.0460928 to 0.0460928
Heightened Def Con from 0.0461062 to 0.0461062
Heightened Def Con from 0.0461597 to 0.0461597
Heightened Def Con from 0.0461731 to 0.0461731
Heightened Def Con from 0.0462132 to 0.0462132
Heightened Def Con from 0.0462332 to 0.0462332
Heightened Def Con from 0.0462666 to 0.0462666
Heightened Def Con from 0.0464137 to 0.0464137
Heightened Def Con from 0.0464739 to 0.0464739
Heightened Def Con from 0.046661 to 0.046661
Heightened Def Con from 0.0466677 to 0.0466677
Heightened Def Con from 0.0466744 to 0.0466744
Heightened Def Con from 0.0467078 to 0.0467078
Heightened Def Con from 0.046788 to 0.046788
Heightened Def Con from 0.0468215 to 0.0468215
Heightened Def Con from 0.0468549 to 0.0468549
Heightened Def Con from 0.0468883 to 0.0468883
Heightened Def Con from 0.0469418 to 0.0469418
Heightened Def Con from 0.0469618 to 0.0469618
Heightened Def Con from 0.0469752 to 0.0469752
Heightened Def Con from 0.047002 to 0.047002
Heightened Def Con from 0.0471156 to 0.0471156
Heightened Def Con from 0.0471423 to 0.0471423
Heightened Def Con from 0.0471624 to 0.0471624
Heightened Def Con from 0.0475233 to 0.0475233
Heightened Def Con from 0.0475567 to 0.0475567
Heightened Def Con from 0.047637 to 0.047637
Heightened Def Con from 0.0478375 to 0.0478375
Heightened Def Con from 0.0478509 to 0.0478509
Heightened Def Con from 0.0478576 to 0.0478576
Heightened Def Con from 0.0479043 to 0.0479043
Heightened Def Con from 0.0479511 to 0.0479511
Heightened Def Con from 0.0479979 to 0.0479979
Heightened Def Con from 0.0480113 to 0.0480113
Heightened Def Con from 0.0480514 to 0.0480514
Heightened Def Con from 0.0480715 to 0.0480715
Heightened Def Con from 0.0480848 to 0.0480848
Heightened Def Con from 0.0481049 to 0.0481049
Heightened Def Con from 0.0481249 to 0.0481249
Heightened Def Con from 0.0481383 to 0.0481383
Heightened Def Con from 0.0481584 to 0.0481584
Heightened Def Con from 0.0482653 to 0.0482653
Heightened Def Con from 0.0482787 to 0.0482787
Heightened Def Con from 0.0482987 to 0.0482987
Heightened Def Con from 0.0483188 to 0.0483188
Heightened Def Con from 0.0483589 to 0.0483589
Heightened Def Con from 0.0484926 to 0.0484926
Heightened Def Con from 0.048526 to 0.048526
Heightened Def Con from 0.048546 to 0.048546
Heightened Def Con from 0.0485527 to 0.0485527
Heightened Def Con from 0.0486664 to 0.0486664
Heightened Def Con from 0.0487132 to 0.0487132
Heightened Def Con from 0.0487533 to 0.0487533
Heightened Def Con from 0.0487599 to 0.0487599
Heightened Def Con from 0.0487666 to 0.0487666
Heightened Def Con from 0.04878 to 0.04878
Heightened Def Con from 0.0488 to 0.0488
Heightened Def Con from 0.0489137 to 0.0489137
Heightened Def Con from 0.049054 to 0.049054
Heightened Def Con from 0.0491142 to 0.0491142
Heightened Def Con from 0.0492078 to 0.0492078
Heightened Def Con from 0.0492144 to 0.0492144
Heightened Def Con from 0.0492679 to 0.0492679
Heightened Def Con from 0.049308 to 0.049308
Heightened Def Con from 0.0493147 to 0.0493147
Heightened Def Con from 0.0493615 to 0.0493615
Heightened Def Con from 0.049415 to 0.049415
Heightened Def Con from 0.0494217 to 0.0494217
Heightened Def Con from 0.0494484 to 0.0494484
Heightened Def Con from 0.0495219 to 0.0495219
Heightened Def Con from 0.0495487 to 0.0495487
Heightened Def Con from 0.0496356 to 0.0496356
Heightened Def Con from 0.0497091 to 0.0497091
Heightened Def Con from 0.0497626 to 0.0497626
Heightened Def Con from 0.0498161 to 0.0498161
Heightened Def Con from 0.0498628 to 0.0498628
Heightened Def Con from 0.0498829 to 0.0498829
Heightened Def Con from 0.0499096 to 0.0499096
Heightened Def Con from 0.0499297 to 0.0499297
Heightened Def Con from 0.0499631 to 0.0499631
Heightened Def Con from 0.0499765 to 0.0499765
Heightened Def Con from 0.0500099 to 0.0500099
Heightened Def Con from 0.05003 to 0.05003
Heightened Def Con from 0.0500634 to 0.0500634
Heightened Def Con from 0.0500968 to 0.0500968
Heightened Def Con from 0.050157 to 0.050157
Heightened Def Con from 0.0502572 to 0.0502572
Heightened Def Con from 0.0502773 to 0.0502773
Heightened Def Con from 0.0502906 to 0.0502906
Heightened Def Con from 0.0503909 to 0.0503909
Heightened Def Con from 0.0504444 to 0.0504444
Heightened Def Con from 0.0505915 to 0.0505915
Heightened Def Con from 0.0506249 to 0.0506249
Heightened Def Con from 0.0506316 to 0.0506316
Heightened Def Con from 0.0506784 to 0.0506784
Heightened Def Con from 0.0506851 to 0.0506851
Heightened Def Con from 0.0507118 to 0.0507118
Heightened Def Con from 0.0508722 to 0.0508722
Heightened Def Con from 0.0508923 to 0.0508923
Heightened Def Con from 0.0509057 to 0.0509057
Heightened Def Con from 0.0510728 to 0.0510728
Heightened Def Con from 0.0510995 to 0.0510995
Heightened Def Con from 0.0511196 to 0.0511196
Heightened Def Con from 0.051173 to 0.051173
Heightened Def Con from 0.0511998 to 0.0511998
Heightened Def Con from 0.0512666 to 0.0512666
Heightened Def Con from 0.0512934 to 0.0512934
Heightened Def Con from 0.0513134 to 0.0513134
Heightened Def Con from 0.0513535 to 0.0513535
Heightened Def Con from 0.0513669 to 0.0513669
Heightened Def Con from 0.0514337 to 0.0514337
Heightened Def Con from 0.0515273 to 0.0515273
Heightened Def Con from 0.0515607 to 0.0515607
Heightened Def Con from 0.0517011 to 0.0517011
Heightened Def Con from 0.0517144 to 0.0517144
Heightened Def Con from 0.0517612 to 0.0517612
Heightened Def Con from 0.0517813 to 0.0517813
Heightened Def Con from 0.0518013 to 0.0518013
Heightened Def Con from 0.0520553 to 0.0520553
Heightened Def Con from 0.0520954 to 0.0520954
Heightened Def Con from 0.0521222 to 0.0521222
Heightened Def Con from 0.0522425 to 0.0522425
Heightened Def Con from 0.0523227 to 0.0523227
Heightened Def Con from 0.0524363 to 0.0524363
Heightened Def Con from 0.0524831 to 0.0524831
Heightened Def Con from 0.0525233 to 0.0525233
Heightened Def Con from 0.0525299 to 0.0525299
Heightened Def Con from 0.0525366 to 0.0525366
Heightened Def Con from 0.0525701 to 0.0525701
Heightened Def Con from 0.0526503 to 0.0526503
Heightened Def Con from 0.0527171 to 0.0527171
Heightened Def Con from 0.0527572 to 0.0527572
Heightened Def Con from 0.0527773 to 0.0527773
Heightened Def Con from 0.0527973 to 0.0527973
Heightened Def Con from 0.0528508 to 0.0528508
Heightened Def Con from 0.0528775 to 0.0528775
Heightened Def Con from 0.0528909 to 0.0528909
Heightened Def Con from 0.052911 to 0.052911
Heightened Def Con from 0.0529377 to 0.0529377
Heightened Def Con from 0.0529912 to 0.0529912
Heightened Def Con from 0.053058 to 0.053058
Heightened Def Con from 0.0531182 to 0.0531182
Heightened Def Con from 0.0531316 to 0.0531316
Heightened Def Con from 0.0532853 to 0.0532853
Heightened Def Con from 0.0533187 to 0.0533187
Heightened Def Con from 0.0534457 to 0.0534457
Heightened Def Con from 0.053526 to 0.053526
Heightened Def Con from 0.0536463 to 0.0536463
Heightened Def Con from 0.0536797 to 0.0536797
Heightened Def Con from 0.0538067 to 0.0538067
Heightened Def Con from 0.0538535 to 0.0538535
Heightened Def Con from 0.053907 to 0.053907
Heightened Def Con from 0.0539337 to 0.0539337
Heightened Def Con from 0.0540139 to 0.0540139
Heightened Def Con from 0.0540339 to 0.0540339
Heightened Def Con from 0.0541208 to 0.0541208
Heightened Def Con from 0.0541342 to 0.0541342
Heightened Def Con from 0.0541743 to 0.0541743
Heightened Def Con from 0.0542144 to 0.0542144
Heightened Def Con from 0.0542278 to 0.0542278
Heightened Def Con from 0.0542479 to 0.0542479
Heightened Def Con from 0.0542679 to 0.0542679
Heightened Def Con from 0.0543348 to 0.0543348
Heightened Def Con from 0.0543481 to 0.0543481
Heightened Def Con from 0.054435 to 0.054435
Heightened Def Con from 0.0544551 to 0.0544551
Heightened Def Con from 0.0544684 to 0.0544684
Heightened Def Con from 0.0544751 to 0.0544751
Heightened Def Con from 0.054542 to 0.054542
Heightened Def Con from 0.0545486 to 0.0545486
Heightened Def Con from 0.054562 to 0.054562
Heightened Def Con from 0.0546021 to 0.0546021
Heightened Def Con from 0.0546155 to 0.0546155
Heightened Def Con from 0.0546289 to 0.0546289
Heightened Def Con from 0.0546823 to 0.0546823
Heightened Def Con from 0.0547024 to 0.0547024
Heightened Def Con from 0.0548027 to 0.0548027
Heightened Def Con from 0.0548227 to 0.0548227
Heightened Def Con from 0.0548495 to 0.0548495
Heightened Def Con from 0.0548695 to 0.0548695
Heightened Def Con from 0.0549431 to 0.0549431
Heightened Def Con from 0.0549765 to 0.0549765
Heightened Def Con from 0.0550299 to 0.0550299
Heightened Def Con from 0.0551569 to 0.0551569
Heightened Def Con from 0.055177 to 0.055177
Heightened Def Con from 0.0552839 to 0.0552839
Heightened Def Con from 0.0553976 to 0.0553976
Heightened Def Con from 0.0554577 to 0.0554577
Heightened Def Con from 0.0554778 to 0.0554778
Heightened Def Con from 0.0555714 to 0.0555714
Heightened Def Con from 0.0555847 to 0.0555847
Heightened Def Con from 0.0557786 to 0.0557786
Heightened Def Con from 0.0558053 to 0.0558053
Heightened Def Con from 0.0558588 to 0.0558588
Heightened Def Con from 0.0561395 to 0.0561395
Heightened Def Con from 0.056213 to 0.056213
Heightened Def Con from 0.0562665 to 0.0562665
Heightened Def Con from 0.0563066 to 0.0563066
Heightened Def Con from 0.0563801 to 0.0563801
Heightened Def Con from 0.0564336 to 0.0564336
Heightened Def Con from 0.0564403 to 0.0564403
Heightened Def Con from 0.0564537 to 0.0564537
Heightened Def Con from 0.0565005 to 0.0565005
Heightened Def Con from 0.0565071 to 0.0565071
Heightened Def Con from 0.0565807 to 0.0565807
Heightened Def Con from 0.0566074 to 0.0566074
Heightened Def Con from 0.0566208 to 0.0566208
Heightened Def Con from 0.0566408 to 0.0566408
Heightened Def Con from 0.0567478 to 0.0567478
Heightened Def Con from 0.056848 to 0.056848
Heightened Def Con from 0.0568748 to 0.0568748
Heightened Def Con from 0.0570285 to 0.0570285
Heightened Def Con from 0.0571355 to 0.0571355
Heightened Def Con from 0.0571822 to 0.0571822
Heightened Def Con from 0.0572758 to 0.0572758
Heightened Def Con from 0.0573026 to 0.0573026
Heightened Def Con from 0.057356 to 0.057356
Heightened Def Con from 0.0573828 to 0.0573828
Heightened Def Con from 0.0575432 to 0.0575432
Heightened Def Con from 0.0575499 to 0.0575499
Heightened Def Con from 0.0576301 to 0.0576301
Heightened Def Con from 0.0576368 to 0.0576368
Heightened Def Con from 0.0577838 to 0.0577838
Heightened Def Con from 0.0578039 to 0.0578039
Heightened Def Con from 0.0579109 to 0.0579109
Heightened Def Con from 0.0579309 to 0.0579309
Heightened Def Con from 0.0581314 to 0.0581314
Heightened Def Con from 0.0582584 to 0.0582584
Heightened Def Con from 0.0582985 to 0.0582985
Heightened Def Con from 0.0583386 to 0.0583386
Heightened Def Con from 0.058352 to 0.058352
Heightened Def Con from 0.0584857 to 0.0584857
Heightened Def Con from 0.0585191 to 0.0585191
Heightened Def Con from 0.0585258 to 0.0585258
Heightened Def Con from 0.0586662 to 0.0586662
Heightened Def Con from 0.0586729 to 0.0586729
Heightened Def Con from 0.0586862 to 0.0586862
Heightened Def Con from 0.0586996 to 0.0586996
Heightened Def Con from 0.058713 to 0.058713
Heightened Def Con from 0.0587865 to 0.0587865
Heightened Def Con from 0.0587932 to 0.0587932
Heightened Def Con from 0.0588266 to 0.0588266
Heightened Def Con from 0.05886 to 0.05886
Heightened Def Con from 0.0588734 to 0.0588734
Heightened Def Con from 0.0589469 to 0.0589469
Heightened Def Con from 0.0590004 to 0.0590004
Heightened Def Con from 0.0590271 to 0.0590271
Heightened Def Con from 0.0590338 to 0.0590338
Heightened Def Con from 0.0592611 to 0.0592611
Heightened Def Con from 0.0592878 to 0.0592878
Heightened Def Con from 0.0593547 to 0.0593547
Heightened Def Con from 0.0594616 to 0.0594616
Heightened Def Con from 0.0595418 to 0.0595418
Heightened Def Con from 0.0595753 to 0.0595753
Heightened Def Con from 0.0595819 to 0.0595819
Heightened Def Con from 0.0596154 to 0.0596154
Heightened Def Con from 0.0596221 to 0.0596221
Heightened Def Con from 0.0596354 to 0.0596354
Heightened Def Con from 0.0596755 to 0.0596755
Heightened Def Con from 0.0596889 to 0.0596889
Heightened Def Con from 0.059709 to 0.059709
Heightened Def Con from 0.0597156 to 0.0597156
Heightened Def Con from 0.0597424 to 0.0597424
Heightened Def Con from 0.0597691 to 0.0597691
Heightened Def Con from 0.0597758 to 0.0597758
Heightened Def Con from 0.0597825 to 0.0597825
Heightened Def Con from 0.0598092 to 0.0598092
Heightened Def Con from 0.059856 to 0.059856
Heightened Def Con from 0.0599162 to 0.0599162
Heightened Def Con from 0.0600031 to 0.0600031
Heightened Def Con from 0.0600432 to 0.0600432
Heightened Def Con from 0.0600833 to 0.0600833
Heightened Def Con from 0.0601635 to 0.0601635
Heightened Def Con from 0.0602237 to 0.0602237
Heightened Def Con from 0.0602303 to 0.0602303
Heightened Def Con from 0.060237 to 0.060237
Heightened Def Con from 0.0602638 to 0.0602638
Heightened Def Con from 0.0603373 to 0.0603373
Heightened Def Con from 0.0603707 to 0.0603707
Heightened Def Con from 0.0603974 to 0.0603974
Heightened Def Con from 0.0606314 to 0.0606314
Heightened Def Con from 0.0606381 to 0.0606381
Heightened Def Con from 0.0606515 to 0.0606515
Heightened Def Con from 0.060725 to 0.060725
Heightened Def Con from 0.0608119 to 0.0608119
Heightened Def Con from 0.0608587 to 0.0608587
Heightened Def Con from 0.0609389 to 0.0609389
Heightened Def Con from 0.0609589 to 0.0609589
Heightened Def Con from 0.0610993 to 0.0610993
Heightened Def Con from 0.061126 to 0.061126
Heightened Def Con from 0.0612998 to 0.0612998
Heightened Def Con from 0.0613533 to 0.0613533
Heightened Def Con from 0.06136 to 0.06136
Heightened Def Con from 0.0614202 to 0.0614202
Heightened Def Con from 0.0614536 to 0.0614536
Heightened Def Con from 0.0614603 to 0.0614603
Heightened Def Con from 0.061487 to 0.061487
Heightened Def Con from 0.0615538 to 0.0615538
Heightened Def Con from 0.0615939 to 0.0615939
Heightened Def Con from 0.0616541 to 0.0616541
Heightened Def Con from 0.0616742 to 0.0616742
Heightened Def Con from 0.0617009 to 0.0617009
Heightened Def Con from 0.0617811 to 0.0617811
Heightened Def Con from 0.0618012 to 0.0618012
Heightened Def Con from 0.0618078 to 0.0618078
Heightened Def Con from 0.0618145 to 0.0618145
Heightened Def Con from 0.0618212 to 0.0618212
Heightened Def Con from 0.0618747 to 0.0618747
Heightened Def Con from 0.0618881 to 0.0618881
Heightened Def Con from 0.0619282 to 0.0619282
Heightened Def Con from 0.0619482 to 0.0619482
Heightened Def Con from 0.062122 to 0.062122
Heightened Def Con from 0.0621621 to 0.0621621
Heightened Def Con from 0.0621688 to 0.0621688
Heightened Def Con from 0.0622223 to 0.0622223
Heightened Def Con from 0.062229 to 0.062229
Heightened Def Con from 0.0623025 to 0.0623025
Heightened Def Con from 0.0624963 to 0.0624963
Heightened Def Con from 0.062503 to 0.062503
Heightened Def Con from 0.0625565 to 0.0625565
Heightened Def Con from 0.0628038 to 0.0628038
Heightened Def Con from 0.0628238 to 0.0628238
Heightened Def Con from 0.0629508 to 0.0629508
Heightened Def Con from 0.0629909 to 0.0629909
Heightened Def Con from 0.0630578 to 0.0630578
Heightened Def Con from 0.0630645 to 0.0630645
Heightened Def Con from 0.063158 to 0.063158
Heightened Def Con from 0.0631981 to 0.0631981
Heightened Def Con from 0.0632249 to 0.0632249
Heightened Def Con from 0.0632316 to 0.0632316
Heightened Def Con from 0.0632583 to 0.0632583
Heightened Def Con from 0.063392 to 0.063392
Heightened Def Con from 0.0634521 to 0.0634521
Heightened Def Con from 0.0634989 to 0.0634989
Heightened Def Con from 0.0636259 to 0.0636259
Heightened Def Con from 0.0637195 to 0.0637195
Heightened Def Con from 0.0637396 to 0.0637396
Heightened Def Con from 0.0638732 to 0.0638732
Heightened Def Con from 0.0639067 to 0.0639067
Heightened Def Con from 0.06392 to 0.06392
Heightened Def Con from 0.0640604 to 0.0640604
Heightened Def Con from 0.0641406 to 0.0641406
Heightened Def Con from 0.0641941 to 0.0641941
Heightened Def Con from 0.0642008 to 0.0642008
Heightened Def Con from 0.0642142 to 0.0642142
Heightened Def Con from 0.0642676 to 0.0642676
Heightened Def Con from 0.0643612 to 0.0643612
Heightened Def Con from 0.064388 to 0.064388
Heightened Def Con from 0.0644414 to 0.0644414
Heightened Def Con from 0.0645016 to 0.0645016
Heightened Def Con from 0.0645149 to 0.0645149
Heightened Def Con from 0.0645551 to 0.0645551
Heightened Def Con from 0.0645617 to 0.0645617
Heightened Def Con from 0.0646152 to 0.0646152
Heightened Def Con from 0.0646353 to 0.0646353
Heightened Def Con from 0.064662 to 0.064662
Heightened Def Con from 0.0647155 to 0.0647155
Heightened Def Con from 0.0647288 to 0.0647288
Heightened Def Con from 0.0647756 to 0.0647756
Heightened Def Con from 0.0648625 to 0.0648625
Heightened Def Con from 0.0648893 to 0.0648893
Heightened Def Con from 0.0649026 to 0.0649026
Heightened Def Con from 0.0649695 to 0.0649695
Heightened Def Con from 0.0650363 to 0.0650363
Heightened Def Con from 0.0651165 to 0.0651165
Heightened Def Con from 0.0651232 to 0.0651232
Heightened Def Con from 0.0651967 to 0.0651967
Heightened Def Con from 0.0652435 to 0.0652435
Heightened Def Con from 0.0652569 to 0.0652569
Heightened Def Con from 0.0653104 to 0.0653104
Heightened Def Con from 0.0653638 to 0.0653638
Heightened Def Con from 0.0654975 to 0.0654975
Heightened Def Con from 0.0655911 to 0.0655911
Heightened Def Con from 0.0655978 to 0.0655978
Heightened Def Con from 0.0657047 to 0.0657047
Heightened Def Con from 0.0657783 to 0.0657783
Heightened Def Con from 0.0657916 to 0.0657916
Heightened Def Con from 0.0658251 to 0.0658251
Heightened Def Con from 0.0658719 to 0.0658719
Heightened Def Con from 0.0658986 to 0.0658986
Heightened Def Con from 0.065932 to 0.065932
Heightened Def Con from 0.0660256 to 0.0660256
Heightened Def Con from 0.0660724 to 0.0660724
Heightened Def Con from 0.0661058 to 0.0661058
Heightened Def Con from 0.0661927 to 0.0661927
Heightened Def Con from 0.0662395 to 0.0662395
Heightened Def Con from 0.066313 to 0.066313
Heightened Def Con from 0.0663197 to 0.0663197
Heightened Def Con from 0.0663397 to 0.0663397
Heightened Def Con from 0.0664066 to 0.0664066
Heightened Def Con from 0.0664601 to 0.0664601
Heightened Def Con from 0.0665069 to 0.0665069
Heightened Def Con from 0.0666004 to 0.0666004
Heightened Def Con from 0.066694 to 0.066694
Heightened Def Con from 0.0667074 to 0.0667074
Heightened Def Con from 0.0667141 to 0.0667141
Heightened Def Con from 0.0667475 to 0.0667475
Heightened Def Con from 0.0667675 to 0.0667675
Heightened Def Con from 0.0667809 to 0.0667809
Heightened Def Con from 0.0668945 to 0.0668945
Heightened Def Con from 0.066948 to 0.066948
Heightened Def Con from 0.0669747 to 0.0669747
Heightened Def Con from 0.0669948 to 0.0669948
Heightened Def Con from 0.0670082 to 0.0670082
Heightened Def Con from 0.0671352 to 0.0671352
Heightened Def Con from 0.0671753 to 0.0671753
Heightened Def Con from 0.0671953 to 0.0671953
Heightened Def Con from 0.0672087 to 0.0672087
Heightened Def Con from 0.0672889 to 0.0672889
Heightened Def Con from 0.067329 to 0.067329
Heightened Def Con from 0.0673691 to 0.0673691
Heightened Def Con from 0.0675363 to 0.0675363
Heightened Def Con from 0.0675697 to 0.0675697
Heightened Def Con from 0.0677702 to 0.0677702
Heightened Def Con from 0.0679975 to 0.0679975
Heightened Def Con from 0.0680042 to 0.0680042
Heightened Def Con from 0.0680443 to 0.0680443
Heightened Def Con from 0.0680844 to 0.0680844
Heightened Def Con from 0.0681178 to 0.0681178
Heightened Def Con from 0.0681245 to 0.0681245
Heightened Def Con from 0.0681579 to 0.0681579
Heightened Def Con from 0.0682181 to 0.0682181
Heightened Def Con from 0.0683183 to 0.0683183
Heightened Def Con from 0.0683518 to 0.0683518
Heightened Def Con from 0.0684052 to 0.0684052
Heightened Def Con from 0.0684387 to 0.0684387
Heightened Def Con from 0.0684453 to 0.0684453
Heightened Def Con from 0.0684788 to 0.0684788
Heightened Def Con from 0.0685055 to 0.0685055
Heightened Def Con from 0.0685389 to 0.0685389
Heightened Def Con from 0.0686125 to 0.0686125
Heightened Def Con from 0.0686258 to 0.0686258
Heightened Def Con from 0.068706 to 0.068706
Heightened Def Con from 0.0687461 to 0.0687461
Heightened Def Con from 0.068833 to 0.068833
Heightened Def Con from 0.0688865 to 0.0688865
Heightened Def Con from 0.0689066 to 0.0689066
Heightened Def Con from 0.0690001 to 0.0690001
Heightened Def Con from 0.0692073 to 0.0692073
Heightened Def Con from 0.069214 to 0.069214
Heightened Def Con from 0.0693009 to 0.0693009
Heightened Def Con from 0.0693143 to 0.0693143
Heightened Def Con from 0.069321 to 0.069321
Heightened Def Con from 0.0693745 to 0.0693745
Heightened Def Con from 0.0694346 to 0.0694346
Heightened Def Con from 0.0694948 to 0.0694948
Heightened Def Con from 0.0695015 to 0.0695015
Heightened Def Con from 0.0696151 to 0.0696151
Heightened Def Con from 0.0696285 to 0.0696285
Heightened Def Con from 0.0696485 to 0.0696485
Heightened Def Con from 0.069722 to 0.069722
Heightened Def Con from 0.0697287 to 0.0697287
Heightened Def Con from 0.0698156 to 0.0698156
Heightened Def Con from 0.0698424 to 0.0698424
Heightened Def Con from 0.0698557 to 0.0698557
Heightened Def Con from 0.0698691 to 0.0698691
Heightened Def Con from 0.069936 to 0.069936
Heightened Def Con from 0.0699827 to 0.0699827
Heightened Def Con from 0.0700362 to 0.0700362
Heightened Def Con from 0.070083 to 0.070083
Heightened Def Con from 0.0702902 to 0.0702902
Heightened Def Con from 0.0703236 to 0.0703236
Heightened Def Con from 0.070444 to 0.070444
Heightened Def Con from 0.0705108 to 0.0705108
Heightened Def Con from 0.0705175 to 0.0705175
Heightened Def Con from 0.0705308 to 0.0705308
Heightened Def Con from 0.0705643 to 0.0705643
Heightened Def Con from 0.0706445 to 0.0706445
Heightened Def Con from 0.0706846 to 0.0706846
Heightened Def Con from 0.0707113 to 0.0707113
Heightened Def Con from 0.0707581 to 0.0707581
Heightened Def Con from 0.0708049 to 0.0708049
Heightened Def Con from 0.0708116 to 0.0708116
Heightened Def Con from 0.0708718 to 0.0708718
Heightened Def Con from 0.0709119 to 0.0709119
Heightened Def Con from 0.0710389 to 0.0710389
Heightened Def Con from 0.0710857 to 0.0710857
Heightened Def Con from 0.0711191 to 0.0711191
Heightened Def Con from 0.0711659 to 0.0711659
Heightened Def Con from 0.0711926 to 0.0711926
Heightened Def Con from 0.071226 to 0.071226
Heightened Def Con from 0.0712795 to 0.0712795
Heightened Def Con from 0.0713129 to 0.0713129
Heightened Def Con from 0.071353 to 0.071353
Heightened Def Con from 0.0713597 to 0.0713597
Heightened Def Con from 0.0713998 to 0.0713998
Heightened Def Con from 0.0714065 to 0.0714065
Heightened Def Con from 0.0714533 to 0.0714533
Heightened Def Con from 0.0715335 to 0.0715335
Heightened Def Con from 0.0716137 to 0.0716137
Heightened Def Con from 0.0716405 to 0.0716405
Heightened Def Con from 0.0716672 to 0.0716672
Heightened Def Con from 0.0717274 to 0.0717274
Heightened Def Con from 0.0718209 to 0.0718209
Heightened Def Con from 0.0719813 to 0.0719813
Heightened Def Con from 0.0720215 to 0.0720215
Heightened Def Con from 0.0720682 to 0.0720682
Heightened Def Con from 0.0720883 to 0.0720883
Heightened Def Con from 0.0721752 to 0.0721752
Heightened Def Con from 0.0721819 to 0.0721819
Heightened Def Con from 0.0723222 to 0.0723222
Heightened Def Con from 0.0724158 to 0.0724158
Heightened Def Con from 0.0724225 to 0.0724225
Heightened Def Con from 0.0725228 to 0.0725228
Heightened Def Con from 0.0725428 to 0.0725428
Heightened Def Con from 0.0726765 to 0.0726765
Heightened Def Con from 0.0726966 to 0.0726966
Heightened Def Con from 0.0727166 to 0.0727166
Heightened Def Con from 0.0727567 to 0.0727567
Heightened Def Con from 0.0728637 to 0.0728637
Heightened Def Con from 0.0730843 to 0.0730843
Heightened Def Con from 0.0731043 to 0.0731043
Heightened Def Con from 0.0731444 to 0.0731444
Heightened Def Con from 0.0731645 to 0.0731645
Heightened Def Con from 0.0732046 to 0.0732046
Heightened Def Con from 0.0732113 to 0.0732113
Heightened Def Con from 0.0732581 to 0.0732581
Heightened Def Con from 0.0734519 to 0.0734519
Heightened Def Con from 0.0734853 to 0.0734853
Heightened Def Con from 0.0735923 to 0.0735923
Heightened Def Con from 0.0736859 to 0.0736859
Heightened Def Con from 0.0738129 to 0.0738129
Heightened Def Con from 0.0738396 to 0.0738396
Heightened Def Con from 0.073873 to 0.073873
Heightened Def Con from 0.0739064 to 0.0739064
Heightened Def Con from 0.0739399 to 0.0739399
Heightened Def Con from 0.0739466 to 0.0739466
Heightened Def Con from 0.074 to 0.074
Heightened Def Con from 0.0740602 to 0.0740602
Heightened Def Con from 0.0741204 to 0.0741204
Heightened Def Con from 0.0741471 to 0.0741471
Heightened Def Con from 0.074234 to 0.074234
Heightened Def Con from 0.0742407 to 0.0742407
Heightened Def Con from 0.0742674 to 0.0742674
Heightened Def Con from 0.0743209 to 0.0743209
Heightened Def Con from 0.0743342 to 0.0743342
Heightened Def Con from 0.0745682 to 0.0745682
Heightened Def Con from 0.0746685 to 0.0746685
Heightened Def Con from 0.0746751 to 0.0746751
Heightened Def Con from 0.0746952 to 0.0746952
Heightened Def Con from 0.0747019 to 0.0747019
Heightened Def Con from 0.0748489 to 0.0748489
Heightened Def Con from 0.0749358 to 0.0749358
Heightened Def Con from 0.0749492 to 0.0749492
Heightened Def Con from 0.0749893 to 0.0749893
Heightened Def Con from 0.0750361 to 0.0750361
Heightened Def Con from 0.0750428 to 0.0750428
Heightened Def Con from 0.0750695 to 0.0750695
Heightened Def Con from 0.0750962 to 0.0750962
Heightened Def Con from 0.0751096 to 0.0751096
Heightened Def Con from 0.0751965 to 0.0751965
Heightened Def Con from 0.0752968 to 0.0752968
Heightened Def Con from 0.0753035 to 0.0753035
Heightened Def Con from 0.0754572 to 0.0754572
Heightened Def Con from 0.0754906 to 0.0754906
Heightened Def Con from 0.0755641 to 0.0755641
Heightened Def Con from 0.0755775 to 0.0755775
Heightened Def Con from 0.0756377 to 0.0756377
Heightened Def Con from 0.0756644 to 0.0756644
Heightened Def Con from 0.0757847 to 0.0757847
Heightened Def Con from 0.0758248 to 0.0758248
Heightened Def Con from 0.0759251 to 0.0759251
Heightened Def Con from 0.0759652 to 0.0759652
Heightened Def Con from 0.0759719 to 0.0759719
Heightened Def Con from 0.0759919 to 0.0759919
Heightened Def Con from 0.076012 to 0.076012
Heightened Def Con from 0.0760187 to 0.0760187
Heightened Def Con from 0.0760989 to 0.0760989
Heightened Def Con from 0.0761256 to 0.0761256
Heightened Def Con from 0.0762994 to 0.0762994
Heightened Def Con from 0.0764531 to 0.0764531
Heightened Def Con from 0.0764665 to 0.0764665
Heightened Def Con from 0.0764866 to 0.0764866
Heightened Def Con from 0.07652 to 0.07652
Heightened Def Con from 0.0765668 to 0.0765668
Heightened Def Con from 0.0765735 to 0.0765735
Heightened Def Con from 0.076647 to 0.076647
Heightened Def Con from 0.0766537 to 0.0766537
Heightened Def Con from 0.0768676 to 0.0768676
Heightened Def Con from 0.076901 to 0.076901
Heightened Def Con from 0.0769411 to 0.0769411
Heightened Def Con from 0.0770748 to 0.0770748
Heightened Def Con from 0.0770948 to 0.0770948
Heightened Def Con from 0.0771082 to 0.0771082
Heightened Def Con from 0.0771216 to 0.0771216
Heightened Def Con from 0.0771283 to 0.0771283
Heightened Def Con from 0.0771617 to 0.0771617
Heightened Def Con from 0.0772218 to 0.0772218
Heightened Def Con from 0.0774157 to 0.0774157
Heightened Def Con from 0.0774357 to 0.0774357
Heightened Def Con from 0.0774625 to 0.0774625
Heightened Def Con from 0.0775026 to 0.0775026
Heightened Def Con from 0.0775293 to 0.0775293
Heightened Def Con from 0.0775761 to 0.0775761
Heightened Def Con from 0.0776563 to 0.0776563
Heightened Def Con from 0.0777566 to 0.0777566
Heightened Def Con from 0.0777833 to 0.0777833
Heightened Def Con from 0.0778501 to 0.0778501
Heightened Def Con from 0.0778702 to 0.0778702
Heightened Def Con from 0.0779972 to 0.0779972
Heightened Def Con from 0.0780574 to 0.0780574
Heightened Def Con from 0.0780908 to 0.0780908
Heightened Def Con from 0.0781042 to 0.0781042
Heightened Def Con from 0.0783314 to 0.0783314
Heightened Def Con from 0.0783582 to 0.0783582
Heightened Def Con from 0.0784852 to 0.0784852
Heightened Def Con from 0.0784986 to 0.0784986
Heightened Def Con from 0.0785119 to 0.0785119
Heightened Def Con from 0.0785186 to 0.0785186
Heightened Def Con from 0.0785921 to 0.0785921
Heightened Def Con from 0.0786857 to 0.0786857
Heightened Def Con from 0.0787392 to 0.0787392
Heightened Def Con from 0.0787793 to 0.0787793
Heightened Def Con from 0.0788328 to 0.0788328
Heightened Def Con from 0.0788461 to 0.0788461
Heightened Def Con from 0.0791202 to 0.0791202
Heightened Def Con from 0.079167 to 0.079167
Heightened Def Con from 0.0792004 to 0.0792004
Heightened Def Con from 0.0793274 to 0.0793274
Heightened Def Con from 0.0794143 to 0.0794143
Heightened Def Con from 0.0794678 to 0.0794678
Heightened Def Con from 0.0795079 to 0.0795079
Heightened Def Con from 0.0795948 to 0.0795948
Heightened Def Con from 0.0797352 to 0.0797352
Heightened Def Con from 0.0797686 to 0.0797686
Heightened Def Con from 0.079782 to 0.079782
Heightened Def Con from 0.0798354 to 0.0798354
Heightened Def Con from 0.0798421 to 0.0798421
Heightened Def Con from 0.0798956 to 0.0798956
Heightened Def Con from 0.0799023 to 0.0799023
Heightened Def Con from 0.079929 to 0.079929
Heightened Def Con from 0.0799491 to 0.0799491
Heightened Def Con from 0.080056 to 0.080056
Heightened Def Con from 0.0800627 to 0.0800627
Heightened Def Con from 0.0800761 to 0.0800761
Heightened Def Con from 0.0801028 to 0.0801028
Heightened Def Con from 0.0801162 to 0.0801162
Heightened Def Con from 0.0803033 to 0.0803033
Heightened Def Con from 0.0803969 to 0.0803969
Heightened Def Con from 0.0804036 to 0.0804036
Heightened Def Con from 0.080417 to 0.080417
Heightened Def Con from 0.0804771 to 0.0804771
Heightened Def Con from 0.0805373 to 0.0805373
Heightened Def Con from 0.0805507 to 0.0805507
Heightened Def Con from 0.0806376 to 0.0806376
Heightened Def Con from 0.0807178 to 0.0807178
Heightened Def Con from 0.0807245 to 0.0807245
Heightened Def Con from 0.0807445 to 0.0807445
Heightened Def Con from 0.0807579 to 0.0807579
Heightened Def Con from 0.080925 to 0.080925
Heightened Def Con from 0.0810186 to 0.0810186
Heightened Def Con from 0.0811255 to 0.0811255
Heightened Def Con from 0.0811589 to 0.0811589
Heightened Def Con from 0.0811656 to 0.0811656
Heightened Def Con from 0.0811991 to 0.0811991
Heightened Def Con from 0.0812124 to 0.0812124
Heightened Def Con from 0.0814129 to 0.0814129
Heightened Def Con from 0.0815934 to 0.0815934
Heightened Def Con from 0.0816068 to 0.0816068
Heightened Def Con from 0.0818073 to 0.0818073
Heightened Def Con from 0.0819009 to 0.0819009
Heightened Def Con from 0.0821148 to 0.0821148
Heightened Def Con from 0.0822886 to 0.0822886
Heightened Def Con from 0.082322 to 0.082322
Heightened Def Con from 0.0823354 to 0.0823354
Heightened Def Con from 0.0824156 to 0.0824156
Heightened Def Con from 0.0825159 to 0.0825159
Heightened Def Con from 0.0826562 to 0.0826562
Heightened Def Con from 0.0826696 to 0.0826696
Heightened Def Con from 0.0827431 to 0.0827431
Heightened Def Con from 0.08281 to 0.08281
Heightened Def Con from 0.0829637 to 0.0829637
Heightened Def Con from 0.0831509 to 0.0831509
Heightened Def Con from 0.0831776 to 0.0831776
Heightened Def Con from 0.0832111 to 0.0832111
Heightened Def Con from 0.0833113 to 0.0833113
Heightened Def Con from 0.083318 to 0.083318
Heightened Def Con from 0.0834316 to 0.0834316
Heightened Def Con from 0.0834383 to 0.0834383
Heightened Def Con from 0.0835118 to 0.0835118
Heightened Def Con from 0.0835185 to 0.0835185
Heightened Def Con from 0.0835787 to 0.0835787
Heightened Def Con from 0.0836054 to 0.0836054
Heightened Def Con from 0.0836589 to 0.0836589
Heightened Def Con from 0.0836723 to 0.0836723
Heightened Def Con from 0.0837926 to 0.0837926
Heightened Def Con from 0.0839263 to 0.0839263
Heightened Def Con from 0.0840266 to 0.0840266
Heightened Def Con from 0.0840399 to 0.0840399
Heightened Def Con from 0.0841201 to 0.0841201
Heightened Def Con from 0.0841335 to 0.0841335
Heightened Def Con from 0.0841937 to 0.0841937
Heightened Def Con from 0.0842204 to 0.0842204
Heightened Def Con from 0.0842672 to 0.0842672
Heightened Def Con from 0.0843474 to 0.0843474
Heightened Def Con from 0.0843741 to 0.0843741
Heightened Def Con from 0.0844209 to 0.0844209
Heightened Def Con from 0.0845412 to 0.0845412
Heightened Def Con from 0.084588 to 0.084588
Heightened Def Con from 0.0846081 to 0.0846081
Heightened Def Con from 0.0846148 to 0.0846148
Heightened Def Con from 0.084695 to 0.084695
Heightened Def Con from 0.084715 to 0.084715
Heightened Def Con from 0.0848153 to 0.0848153
Heightened Def Con from 0.0848353 to 0.0848353
Heightened Def Con from 0.0848755 to 0.0848755
Heightened Def Con from 0.0849156 to 0.0849156
Heightened Def Con from 0.0849423 to 0.0849423
Heightened Def Con from 0.084949 to 0.084949
Heightened Def Con from 0.0849824 to 0.0849824
Heightened Def Con from 0.0850359 to 0.0850359
Heightened Def Con from 0.0851027 to 0.0851027
Heightened Def Con from 0.0851161 to 0.0851161
Heightened Def Con from 0.0852832 to 0.0852832
Heightened Def Con from 0.0853768 to 0.0853768
Heightened Def Con from 0.0853834 to 0.0853834
Heightened Def Con from 0.0854102 to 0.0854102
Heightened Def Con from 0.0856575 to 0.0856575
Heightened Def Con from 0.0857444 to 0.0857444
Heightened Def Con from 0.0857644 to 0.0857644
Heightened Def Con from 0.0858313 to 0.0858313
Heightened Def Con from 0.0858781 to 0.0858781
Heightened Def Con from 0.0859115 to 0.0859115
Heightened Def Con from 0.0860719 to 0.0860719
Heightened Def Con from 0.0860786 to 0.0860786
Heightened Def Con from 0.0861655 to 0.0861655
Heightened Def Con from 0.0862457 to 0.0862457
Heightened Def Con from 0.0863393 to 0.0863393
Heightened Def Con from 0.0863727 to 0.0863727
Heightened Def Con from 0.0864463 to 0.0864463
Heightened Def Con from 0.0864529 to 0.0864529
Heightened Def Con from 0.0865064 to 0.0865064
Heightened Def Con from 0.0865933 to 0.0865933
Heightened Def Con from 0.0866869 to 0.0866869
Heightened Def Con from 0.0867938 to 0.0867938
Heightened Def Con from 0.0869142 to 0.0869142
Heightened Def Con from 0.086981 to 0.086981
Heightened Def Con from 0.0870679 to 0.0870679
Heightened Def Con from 0.0871414 to 0.0871414
Heightened Def Con from 0.0871681 to 0.0871681
Heightened Def Con from 0.0871748 to 0.0871748
Heightened Def Con from 0.0872016 to 0.0872016
Heightened Def Con from 0.0872149 to 0.0872149
Heightened Def Con from 0.0872484 to 0.0872484
Heightened Def Con from 0.087382 to 0.087382
Heightened Def Con from 0.0874021 to 0.0874021
Heightened Def Con from 0.0874823 to 0.0874823
Heightened Def Con from 0.087489 to 0.087489
Heightened Def Con from 0.087509 to 0.087509
Heightened Def Con from 0.0875358 to 0.0875358
Heightened Def Con from 0.0876026 to 0.0876026
Heightened Def Con from 0.0876093 to 0.0876093
Heightened Def Con from 0.0876227 to 0.0876227
Heightened Def Con from 0.0876494 to 0.0876494
Heightened Def Con from 0.0876695 to 0.0876695
Heightened Def Con from 0.0876962 to 0.0876962
Heightened Def Con from 0.0878032 to 0.0878032
Heightened Def Con from 0.0878633 to 0.0878633
Heightened Def Con from 0.0879903 to 0.0879903
Heightened Def Con from 0.0880505 to 0.0880505
Heightened Def Con from 0.0881708 to 0.0881708
Heightened Def Con from 0.0882377 to 0.0882377
Heightened Def Con from 0.0883312 to 0.0883312
Heightened Def Con from 0.0883446 to 0.0883446
Heightened Def Con from 0.0883513 to 0.0883513
Heightened Def Con from 0.0884048 to 0.0884048
Heightened Def Con from 0.0884984 to 0.0884984
Heightened Def Con from 0.0885518 to 0.0885518
Heightened Def Con from 0.0886521 to 0.0886521
Heightened Def Con from 0.0886855 to 0.0886855
Heightened Def Con from 0.0886922 to 0.0886922
Heightened Def Con from 0.088759 to 0.088759
Heightened Def Con from 0.088886 to 0.088886
Heightened Def Con from 0.0889061 to 0.0889061
Heightened Def Con from 0.0889529 to 0.0889529
Heightened Def Con from 0.0891334 to 0.0891334
Heightened Def Con from 0.0892269 to 0.0892269
Heightened Def Con from 0.0892938 to 0.0892938
Heightened Def Con from 0.0894141 to 0.0894141
Heightened Def Con from 0.0894342 to 0.0894342
Heightened Def Con from 0.0894408 to 0.0894408
Heightened Def Con from 0.0894743 to 0.0894743
Heightened Def Con from 0.0894809 to 0.0894809
Heightened Def Con from 0.0894876 to 0.0894876
Heightened Def Con from 0.0895745 to 0.0895745
Heightened Def Con from 0.0895812 to 0.0895812
Heightened Def Con from 0.0896481 to 0.0896481
Heightened Def Con from 0.0896882 to 0.0896882
Heightened Def Con from 0.0896948 to 0.0896948
Heightened Def Con from 0.0898152 to 0.0898152
Heightened Def Con from 0.0898419 to 0.0898419
Heightened Def Con from 0.0900959 to 0.0900959
Heightened Def Con from 0.0901494 to 0.0901494
Heightened Def Con from 0.0902229 to 0.0902229
Heightened Def Con from 0.0902964 to 0.0902964
Heightened Def Con from 0.0903165 to 0.0903165
Heightened Def Con from 0.0903833 to 0.0903833
Heightened Def Con from 0.0904167 to 0.0904167
Heightened Def Con from 0.0904234 to 0.0904234
Heightened Def Con from 0.0904702 to 0.0904702
Heightened Def Con from 0.090517 to 0.090517
Heightened Def Con from 0.0905638 to 0.0905638
Heightened Def Con from 0.0905705 to 0.0905705
Heightened Def Con from 0.0906574 to 0.0906574
Heightened Def Con from 0.0906641 to 0.0906641
Heightened Def Con from 0.0906841 to 0.0906841
Heightened Def Con from 0.0907242 to 0.0907242
Heightened Def Con from 0.0907576 to 0.0907576
Heightened Def Con from 0.0908312 to 0.0908312
Heightened Def Con from 0.0909047 to 0.0909047
Heightened Def Con from 0.0909381 to 0.0909381
Heightened Def Con from 0.0909715 to 0.0909715
Heightened Def Con from 0.0909916 to 0.0909916
Heightened Def Con from 0.0910985 to 0.0910985
Heightened Def Con from 0.0911787 to 0.0911787
Heightened Def Con from 0.0912188 to 0.0912188
Heightened Def Con from 0.0913659 to 0.0913659
Heightened Def Con from 0.0913859 to 0.0913859
Heightened Def Con from 0.0914127 to 0.0914127
Heightened Def Con from 0.0914595 to 0.0914595
Heightened Def Con from 0.0915196 to 0.0915196
Heightened Def Con from 0.0915464 to 0.0915464
Heightened Def Con from 0.0917202 to 0.0917202
Heightened Def Con from 0.0917803 to 0.0917803
Heightened Def Con from 0.0918873 to 0.0918873
Heightened Def Con from 0.0919207 to 0.0919207
Heightened Def Con from 0.0919407 to 0.0919407
Heightened Def Con from 0.0920209 to 0.0920209
Heightened Def Con from 0.0920276 to 0.0920276
Heightened Def Con from 0.0921012 to 0.0921012
Heightened Def Con from 0.0921413 to 0.0921413
Heightened Def Con from 0.0921947 to 0.0921947
Heightened Def Con from 0.0922549 to 0.0922549
Heightened Def Con from 0.0922616 to 0.0922616
Heightened Def Con from 0.0923752 to 0.0923752
Heightened Def Con from 0.0924488 to 0.0924488
Heightened Def Con from 0.0925089 to 0.0925089
Heightened Def Con from 0.0925156 to 0.0925156
Heightened Def Con from 0.0926359 to 0.0926359
Heightened Def Con from 0.0927429 to 0.0927429
Heightened Def Con from 0.0927963 to 0.0927963
Heightened Def Con from 0.0928832 to 0.0928832
Heightened Def Con from 0.0929568 to 0.0929568
Heightened Def Con from 0.0930169 to 0.0930169
Heightened Def Con from 0.093037 to 0.093037
Heightened Def Con from 0.0930838 to 0.0930838
Heightened Def Con from 0.0931372 to 0.0931372
Heightened Def Con from 0.0932174 to 0.0932174
Heightened Def Con from 0.0932642 to 0.0932642
Heightened Def Con from 0.0932709 to 0.0932709
Heightened Def Con from 0.0933511 to 0.0933511
Heightened Def Con from 0.0933645 to 0.0933645
Heightened Def Con from 0.0933779 to 0.0933779
Heightened Def Con from 0.093418 to 0.093418
Heightened Def Con from 0.0935851 to 0.0935851
Heightened Def Con from 0.0937188 to 0.0937188
Heightened Def Con from 0.0937455 to 0.0937455
Heightened Def Con from 0.0937589 to 0.0937589
Heightened Def Con from 0.0937789 to 0.0937789
Heightened Def Con from 0.0937923 to 0.0937923
Heightened Def Con from 0.0938525 to 0.0938525
Heightened Def Con from 0.0938658 to 0.0938658
Heightened Def Con from 0.0940396 to 0.0940396
Heightened Def Con from 0.0940597 to 0.0940597
Heightened Def Con from 0.094073 to 0.094073
Heightened Def Con from 0.0941599 to 0.0941599
Heightened Def Con from 0.0942067 to 0.0942067
Heightened Def Con from 0.0942669 to 0.0942669
Heightened Def Con from 0.0942736 to 0.0942736
Heightened Def Con from 0.0942869 to 0.0942869
Heightened Def Con from 0.0942936 to 0.0942936
Heightened Def Con from 0.094307 to 0.094307
Heightened Def Con from 0.0944607 to 0.0944607
Heightened Def Con from 0.0944741 to 0.0944741
Heightened Def Con from 0.0944875 to 0.0944875
Heightened Def Con from 0.0945744 to 0.0945744
Heightened Def Con from 0.094668 to 0.094668
Heightened Def Con from 0.095069 to 0.095069
Heightened Def Con from 0.0950891 to 0.0950891
Heightened Def Con from 0.0951693 to 0.0951693
Heightened Def Con from 0.0952829 to 0.0952829
Heightened Def Con from 0.0953832 to 0.0953832
Heightened Def Con from 0.0954233 to 0.0954233
Heightened Def Con from 0.0954567 to 0.0954567
Heightened Def Con from 0.0955035 to 0.0955035
Heightened Def Con from 0.0955169 to 0.0955169
Heightened Def Con from 0.0955637 to 0.0955637
Heightened Def Con from 0.0956372 to 0.0956372
Heightened Def Con from 0.0956572 to 0.0956572
Heightened Def Con from 0.0956773 to 0.0956773
Heightened Def Con from 0.0956907 to 0.0956907
Heightened Def Con from 0.0956973 to 0.0956973
Heightened Def Con from 0.0957374 to 0.0957374
Heightened Def Con from 0.0957642 to 0.0957642
Heightened Def Con from 0.0958177 to 0.0958177
Heightened Def Con from 0.0958377 to 0.0958377
Heightened Def Con from 0.0958511 to 0.0958511
Heightened Def Con from 0.0958644 to 0.0958644
Heightened Def Con from 0.0959112 to 0.0959112
Heightened Def Con from 0.0960516 to 0.0960516
Heightened Def Con from 0.0961051 to 0.0961051
Heightened Def Con from 0.0961385 to 0.0961385
Heightened Def Con from 0.0961519 to 0.0961519
Heightened Def Con from 0.0962053 to 0.0962053
Heightened Def Con from 0.0962455 to 0.0962455
Heightened Def Con from 0.0963123 to 0.0963123
Heightened Def Con from 0.0963591 to 0.0963591
Heightened Def Con from 0.0964259 to 0.0964259
Heightened Def Con from 0.0965797 to 0.0965797
Heightened Def Con from 0.0965997 to 0.0965997
Heightened Def Con from 0.0966064 to 0.0966064
Heightened Def Con from 0.0966799 to 0.0966799
Heightened Def Con from 0.0967802 to 0.0967802
Heightened Def Con from 0.0968069 to 0.0968069
Heightened Def Con from 0.0968537 to 0.0968537
Heightened Def Con from 0.0968938 to 0.0968938
Heightened Def Con from 0.0969206 to 0.0969206
Heightened Def Con from 0.096974 to 0.096974
Heightened Def Con from 0.097208 to 0.097208
Heightened Def Con from 0.0972414 to 0.0972414
Heightened Def Con from 0.0972815 to 0.0972815
Heightened Def Con from 0.0974753 to 0.0974753
Heightened Def Con from 0.0974954 to 0.0974954
Heightened Def Con from 0.0975088 to 0.0975088
Heightened Def Con from 0.0975221 to 0.0975221
Heightened Def Con from 0.0975756 to 0.0975756
Heightened Def Con from 0.0975823 to 0.0975823
Heightened Def Con from 0.097609 to 0.097609
Heightened Def Con from 0.0976892 to 0.0976892
Heightened Def Con from 0.097736 to 0.097736
Heightened Def Con from 0.0977761 to 0.0977761
Heightened Def Con from 0.0978497 to 0.0978497
Heightened Def Con from 0.0978563 to 0.0978563
Heightened Def Con from 0.097863 to 0.097863
Heightened Def Con from 0.0980836 to 0.0980836
Heightened Def Con from 0.0981037 to 0.0981037
Heightened Def Con from 0.0982441 to 0.0982441
Heightened Def Con from 0.0982708 to 0.0982708
Heightened Def Con from 0.0983377 to 0.0983377
Heightened Def Con from 0.0983911 to 0.0983911
Heightened Def Con from 0.0984714 to 0.0984714
Heightened Def Con from 0.0984914 to 0.0984914
Heightened Def Con from 0.0985382 to 0.0985382
Heightened Def Con from 0.0985449 to 0.0985449
Heightened Def Con from 0.0985516 to 0.0985516
Heightened Def Con from 0.0985583 to 0.0985583
Heightened Def Con from 0.098585 to 0.098585
Heightened Def Con from 0.0985917 to 0.0985917
Heightened Def Con from 0.0986986 to 0.0986986
Heightened Def Con from 0.0987521 to 0.0987521
Heightened Def Con from 0.0987989 to 0.0987989
Heightened Def Con from 0.0988123 to 0.0988123
Heightened Def Con from 0.0988457 to 0.0988457
Heightened Def Con from 0.0989459 to 0.0989459
Heightened Def Con from 0.0989794 to 0.0989794
Heightened Def Con from 0.098986 to 0.098986
Heightened Def Con from 0.0990128 to 0.0990128
Heightened Def Con from 0.0991665 to 0.0991665
Heightened Def Con from 0.0991799 to 0.0991799
Heightened Def Con from 0.0991866 to 0.0991866
Heightened Def Con from 0.0991933 to 0.0991933
Heightened Def Con from 0.0992401 to 0.0992401
Heightened Def Con from 0.0992534 to 0.0992534
Heightened Def Con from 0.0992601 to 0.0992601
Heightened Def Con from 0.0993604 to 0.0993604
Heightened Def Con from 0.0993737 to 0.0993737
Heightened Def Con from 0.0993804 to 0.0993804
Heightened Def Con from 0.0993871 to 0.0993871
Heightened Def Con from 0.0994072 to 0.0994072
Heightened Def Con from 0.0994339 to 0.0994339
Heightened Def Con from 0.099494 to 0.099494
Heightened Def Con from 0.0995007 to 0.0995007
Heightened Def Con from 0.0995408 to 0.0995408
Heightened Def Con from 0.0995609 to 0.0995609
Heightened Def Con from 0.099601 to 0.099601
Heightened Def Con from 0.0996411 to 0.0996411
Heightened Def Con from 0.0997146 to 0.0997146
Heightened Def Con from 0.0997414 to 0.0997414
Heightened Def Con from 0.0997547 to 0.0997547
Heightened Def Con from 0.0997614 to 0.0997614
Heightened Def Con from 0.0997681 to 0.0997681
Heightened Def Con from 0.0997948 to 0.0997948
Heightened Def Con from 0.0999018 to 0.0999018
Heightened Def Con from 0.0999085 to 0.0999085
Heightened Def Con from 0.0999486 to 0.0999486

pin: AVG(-v(in)*i(v1))=4.50163 FROM 0 TO 0.09
pout: AVG(v(out)*i(r4))=4.00972 FROM 0 TO 0.09
eff: pout/pin=0.890728


Date: Sun Jun 21 23:04:13 2020
Total elapsed time: 434.176 seconds.

tnom = 27
temp = 27
method = modified trap
totiter = 32759872
traniter = 32759865
tranpoints = 9901106
accept = 7349783
rejected = 2552952
matrix size = 106
fillins = 50
solver = Normal
Thread vector: 9.7/8.0[2] 2.5/2.9[1] 3.5/2.6[2] 0.3/1.9[1]  2592/500
Matrix Compiler1: 5.11 KB object code size  1.3/0.7/[0.7]
Matrix Compiler2: 7.39 KB object code size  0.4/1.4/[0.4]

