Circuit: * C:\Users\gabri\Google Drive\ESP32\SIMULATIONS\4-20mA\4-20mA.asc

Direct Newton iteration failed to find .op point.  (Use ".option noopiter" to skip.)
Starting Gmin stepping
Gmin = 10
Gmin = 1.07374
Gmin = 0.115292
Gmin = 0.0123794
Gmin = 0.00132923
vernier = 0.5
vernier = 0.25
Gmin = 0.000387166
vernier = 0.125
vernier = 0.0625
vernier = 0.03125
Gmin = 0.000347892
vernier = 0.0416667
vernier = 0.0555555
Gmin = 0.000315001
vernier = 0.074074
Gmin = 0.000268235
vernier = 0.0987653
vernier = 0.131687
Gmin = 0.000206436
vernier = 0.175583
vernier = 0.23411
Gmin = 0.000136754
vernier = 0.312147
Gmin = 7.06741e-005
vernier = 0.416196
vernier = 0.554928
Gmin = 2.4515e-005
vernier = 0.739903
vernier = 0.986537
Gmin = 4.8103e-006
vernier = 1
Gmin = 5.23512e-007
Gmin = 5.62116e-008
Gmin = 6.03568e-009
Gmin = 6.48076e-010
Gmin = 6.95866e-011
Gmin = 7.47181e-012
Gmin = 8.02279e-013
Gmin = 0
Gmin = 0
Gmin stepping succeeded in finding the operating point.


Date: Tue May 12 21:34:12 2020
Total elapsed time: 0.510 seconds.

tnom = 27
temp = 27
method = modified trap
totiter = 3152
traniter = 2082
tranpoints = 1042
accept = 1042
rejected = 0
matrix size = 134
fillins = 173
solver = Normal
Thread vector: 23.8/17.2[3] 3.7/3.8[1] 9.6/7.9[3] 1.3/3.3[1]  2592/500
Matrix Compiler1: 16.70 KB object code size  6.5/3.4/[1.6]
Matrix Compiler2: 13.95 KB object code size  5.2/5.4/[1.8]

