Circuit: * C:\Users\gabri\Google Drive\ESP32\SIMULATIONS\4-20mA\4-20mA_test2.asc

.step run=1 temp=0
Direct Newton iteration failed to find .op point.  (Use ".option noopiter" to skip.)
Starting Gmin stepping
Gmin = 10
Gmin = 1.07374
Gmin = 0.115292
Gmin = 0.0123794
Gmin = 0.00132923
Gmin = 0.000142725
vernier = 0.5
vernier = 0.25
Gmin = 5.17847e-005
vernier = 0.333333
vernier = 0.444444
Gmin = 2.40372e-005
vernier = 0.592592
Gmin = 7.1139e-006
vernier = 0.790123
vernier = 1
Gmin = 1.07562e-006
Gmin = 1.15494e-007
Gmin = 1.24011e-008
Gmin = 1.33156e-009
Gmin = 1.42975e-010
Gmin = 1.53518e-011
Gmin = 1.64839e-012
Gmin = 1.76994e-013
Gmin = 0
Gmin stepping succeeded in finding the operating point.

.step run=2 temp=0
.step run=3 temp=0
.step run=4 temp=0
.step run=5 temp=0
.step run=6 temp=0
.step run=7 temp=0
.step run=8 temp=0
.step run=9 temp=0
.step run=10 temp=0
.step run=11 temp=0
.step run=12 temp=0
.step run=13 temp=0
.step run=14 temp=0
.step run=15 temp=0
.step run=16 temp=0
.step run=17 temp=0
.step run=18 temp=0
.step run=19 temp=0
.step run=20 temp=0
.step run=21 temp=0
.step run=22 temp=0
.step run=23 temp=0
.step run=24 temp=0
.step run=25 temp=0
.step run=26 temp=0
.step run=27 temp=0
.step run=28 temp=0
.step run=29 temp=0
.step run=30 temp=0
.step run=31 temp=0
.step run=32 temp=0
.step run=33 temp=0
.step run=34 temp=0
.step run=35 temp=0
.step run=36 temp=0
.step run=37 temp=0
.step run=38 temp=0
.step run=39 temp=0
.step run=40 temp=0
.step run=41 temp=0
.step run=42 temp=0
.step run=43 temp=0
.step run=44 temp=0
.step run=45 temp=0
.step run=46 temp=0
.step run=47 temp=0
.step run=48 temp=0
.step run=49 temp=0
.step run=50 temp=0
.step run=51 temp=0
.step run=52 temp=0
.step run=53 temp=0
.step run=54 temp=0
.step run=55 temp=0
.step run=56 temp=0
.step run=57 temp=0
.step run=58 temp=0
.step run=59 temp=0
.step run=60 temp=0
.step run=61 temp=0
.step run=62 temp=0
.step run=63 temp=0
.step run=64 temp=0
.step run=65 temp=0
.step run=66 temp=0
.step run=67 temp=0
.step run=68 temp=0
.step run=69 temp=0
.step run=70 temp=0
.step run=71 temp=0
.step run=72 temp=0
.step run=73 temp=0
.step run=74 temp=0
.step run=75 temp=0
.step run=76 temp=0
.step run=77 temp=0
.step run=78 temp=0
.step run=79 temp=0
.step run=80 temp=0
.step run=81 temp=0
.step run=82 temp=0
.step run=83 temp=0
.step run=84 temp=0
.step run=85 temp=0
.step run=86 temp=0
.step run=87 temp=0
.step run=88 temp=0
.step run=89 temp=0
.step run=90 temp=0
.step run=91 temp=0
.step run=92 temp=0
.step run=93 temp=0
.step run=94 temp=0
.step run=95 temp=0
.step run=96 temp=0
.step run=97 temp=0
.step run=98 temp=0
.step run=99 temp=0
.step run=100 temp=0
.step run=101 temp=0
.step run=102 temp=0
.step run=103 temp=0
.step run=104 temp=0
.step run=105 temp=0
.step run=106 temp=0
.step run=107 temp=0
.step run=108 temp=0
.step run=109 temp=0
.step run=110 temp=0
.step run=111 temp=0
.step run=112 temp=0
.step run=113 temp=0
.step run=114 temp=0
.step run=115 temp=0
.step run=116 temp=0
.step run=117 temp=0
.step run=118 temp=0
.step run=119 temp=0
.step run=120 temp=0
.step run=121 temp=0
.step run=122 temp=0
.step run=123 temp=0
.step run=124 temp=0
.step run=125 temp=0
.step run=126 temp=0
.step run=127 temp=0
.step run=128 temp=0
.step run=129 temp=0
.step run=130 temp=0
.step run=131 temp=0
.step run=132 temp=0
.step run=133 temp=0
.step run=134 temp=0
.step run=135 temp=0
.step run=136 temp=0
.step run=137 temp=0
.step run=138 temp=0
.step run=139 temp=0
.step run=140 temp=0
.step run=141 temp=0
.step run=142 temp=0
.step run=143 temp=0
.step run=144 temp=0
.step run=145 temp=0
.step run=146 temp=0
.step run=147 temp=0
.step run=148 temp=0
.step run=149 temp=0
.step run=150 temp=0
.step run=151 temp=0
.step run=152 temp=0
.step run=153 temp=0
.step run=154 temp=0
.step run=155 temp=0
.step run=156 temp=0
.step run=157 temp=0
.step run=158 temp=0
.step run=159 temp=0
.step run=160 temp=0
.step run=161 temp=0
.step run=162 temp=0
.step run=163 temp=0
.step run=164 temp=0
.step run=165 temp=0
.step run=166 temp=0
.step run=167 temp=0
.step run=168 temp=0
.step run=169 temp=0
.step run=170 temp=0
.step run=171 temp=0
.step run=172 temp=0
.step run=173 temp=0
.step run=174 temp=0
.step run=175 temp=0
.step run=176 temp=0
.step run=177 temp=0
.step run=178 temp=0
.step run=179 temp=0
.step run=180 temp=0
.step run=181 temp=0
.step run=182 temp=0
.step run=183 temp=0
.step run=184 temp=0
.step run=185 temp=0
.step run=186 temp=0
.step run=187 temp=0
.step run=188 temp=0
.step run=189 temp=0
.step run=190 temp=0
.step run=191 temp=0
.step run=192 temp=0
.step run=193 temp=0
.step run=194 temp=0
.step run=195 temp=0
.step run=196 temp=0
.step run=197 temp=0
.step run=198 temp=0
.step run=199 temp=0
.step run=200 temp=0
.step run=1 temp=10
.step run=2 temp=10
.step run=3 temp=10
.step run=4 temp=10
.step run=5 temp=10
.step run=6 temp=10
.step run=7 temp=10
.step run=8 temp=10
.step run=9 temp=10
.step run=10 temp=10
.step run=11 temp=10
.step run=12 temp=10
.step run=13 temp=10
.step run=14 temp=10
.step run=15 temp=10
.step run=16 temp=10
.step run=17 temp=10
.step run=18 temp=10
.step run=19 temp=10
.step run=20 temp=10
.step run=21 temp=10
.step run=22 temp=10
.step run=23 temp=10
.step run=24 temp=10
.step run=25 temp=10
.step run=26 temp=10
.step run=27 temp=10
.step run=28 temp=10
.step run=29 temp=10
.step run=30 temp=10
.step run=31 temp=10
.step run=32 temp=10
.step run=33 temp=10
.step run=34 temp=10
.step run=35 temp=10
.step run=36 temp=10
.step run=37 temp=10
.step run=38 temp=10
.step run=39 temp=10
.step run=40 temp=10
.step run=41 temp=10
.step run=42 temp=10
.step run=43 temp=10
.step run=44 temp=10
.step run=45 temp=10
.step run=46 temp=10
.step run=47 temp=10
.step run=48 temp=10
.step run=49 temp=10
.step run=50 temp=10
.step run=51 temp=10
.step run=52 temp=10
.step run=53 temp=10
.step run=54 temp=10
.step run=55 temp=10
.step run=56 temp=10
.step run=57 temp=10
.step run=58 temp=10
.step run=59 temp=10
.step run=60 temp=10
.step run=61 temp=10
.step run=62 temp=10
.step run=63 temp=10
.step run=64 temp=10
.step run=65 temp=10
.step run=66 temp=10
.step run=67 temp=10
.step run=68 temp=10
.step run=69 temp=10
.step run=70 temp=10
.step run=71 temp=10
.step run=72 temp=10
.step run=73 temp=10
.step run=74 temp=10
.step run=75 temp=10
.step run=76 temp=10
.step run=77 temp=10
.step run=78 temp=10
.step run=79 temp=10
.step run=80 temp=10
.step run=81 temp=10
.step run=82 temp=10
.step run=83 temp=10
.step run=84 temp=10
.step run=85 temp=10
.step run=86 temp=10
.step run=87 temp=10
.step run=88 temp=10
.step run=89 temp=10
.step run=90 temp=10
.step run=91 temp=10
.step run=92 temp=10
.step run=93 temp=10
.step run=94 temp=10
.step run=95 temp=10
.step run=96 temp=10
.step run=97 temp=10
.step run=98 temp=10
.step run=99 temp=10
.step run=100 temp=10
.step run=101 temp=10
.step run=102 temp=10
.step run=103 temp=10
.step run=104 temp=10
.step run=105 temp=10
.step run=106 temp=10
.step run=107 temp=10
.step run=108 temp=10
.step run=109 temp=10
.step run=110 temp=10
.step run=111 temp=10
.step run=112 temp=10
.step run=113 temp=10
.step run=114 temp=10
.step run=115 temp=10
.step run=116 temp=10
.step run=117 temp=10
.step run=118 temp=10
.step run=119 temp=10
.step run=120 temp=10
.step run=121 temp=10
.step run=122 temp=10
.step run=123 temp=10
.step run=124 temp=10
.step run=125 temp=10
.step run=126 temp=10
.step run=127 temp=10
.step run=128 temp=10
.step run=129 temp=10
.step run=130 temp=10
.step run=131 temp=10
.step run=132 temp=10
.step run=133 temp=10
.step run=134 temp=10
.step run=135 temp=10
.step run=136 temp=10
.step run=137 temp=10
.step run=138 temp=10
.step run=139 temp=10
.step run=140 temp=10
.step run=141 temp=10
.step run=142 temp=10
.step run=143 temp=10
.step run=144 temp=10
.step run=145 temp=10
.step run=146 temp=10
.step run=147 temp=10
.step run=148 temp=10
.step run=149 temp=10
.step run=150 temp=10
.step run=151 temp=10
.step run=152 temp=10
.step run=153 temp=10
.step run=154 temp=10
.step run=155 temp=10
.step run=156 temp=10
.step run=157 temp=10
.step run=158 temp=10
.step run=159 temp=10
.step run=160 temp=10
.step run=161 temp=10
.step run=162 temp=10
.step run=163 temp=10
.step run=164 temp=10
.step run=165 temp=10
.step run=166 temp=10
.step run=167 temp=10
.step run=168 temp=10
.step run=169 temp=10
.step run=170 temp=10
.step run=171 temp=10
.step run=172 temp=10
.step run=173 temp=10
.step run=174 temp=10
.step run=175 temp=10
.step run=176 temp=10
.step run=177 temp=10
.step run=178 temp=10
.step run=179 temp=10
.step run=180 temp=10
.step run=181 temp=10
.step run=182 temp=10
.step run=183 temp=10
.step run=184 temp=10
.step run=185 temp=10
.step run=186 temp=10
.step run=187 temp=10
.step run=188 temp=10
.step run=189 temp=10
.step run=190 temp=10
.step run=191 temp=10
.step run=192 temp=10
.step run=193 temp=10
.step run=194 temp=10
.step run=195 temp=10
.step run=196 temp=10
.step run=197 temp=10
.step run=198 temp=10
.step run=199 temp=10
.step run=200 temp=10
.step run=1 temp=20
.step run=2 temp=20
.step run=3 temp=20
.step run=4 temp=20
.step run=5 temp=20
.step run=6 temp=20
.step run=7 temp=20
.step run=8 temp=20
.step run=9 temp=20
.step run=10 temp=20
.step run=11 temp=20
.step run=12 temp=20
.step run=13 temp=20
.step run=14 temp=20
.step run=15 temp=20
.step run=16 temp=20
.step run=17 temp=20
.step run=18 temp=20
.step run=19 temp=20
.step run=20 temp=20
.step run=21 temp=20
.step run=22 temp=20
.step run=23 temp=20
.step run=24 temp=20
.step run=25 temp=20
.step run=26 temp=20
.step run=27 temp=20
.step run=28 temp=20
.step run=29 temp=20
.step run=30 temp=20
.step run=31 temp=20
.step run=32 temp=20
.step run=33 temp=20
.step run=34 temp=20
.step run=35 temp=20
.step run=36 temp=20
.step run=37 temp=20
.step run=38 temp=20
.step run=39 temp=20
.step run=40 temp=20
.step run=41 temp=20
.step run=42 temp=20
.step run=43 temp=20
.step run=44 temp=20
.step run=45 temp=20
.step run=46 temp=20
.step run=47 temp=20
.step run=48 temp=20
.step run=49 temp=20
.step run=50 temp=20
.step run=51 temp=20
.step run=52 temp=20
.step run=53 temp=20
.step run=54 temp=20
.step run=55 temp=20
.step run=56 temp=20
.step run=57 temp=20
.step run=58 temp=20
.step run=59 temp=20
.step run=60 temp=20
.step run=61 temp=20
.step run=62 temp=20
.step run=63 temp=20
.step run=64 temp=20
.step run=65 temp=20
.step run=66 temp=20
.step run=67 temp=20
.step run=68 temp=20
.step run=69 temp=20
.step run=70 temp=20
.step run=71 temp=20
.step run=72 temp=20
.step run=73 temp=20
.step run=74 temp=20
.step run=75 temp=20
.step run=76 temp=20
.step run=77 temp=20
.step run=78 temp=20
.step run=79 temp=20
.step run=80 temp=20
.step run=81 temp=20
.step run=82 temp=20
.step run=83 temp=20
.step run=84 temp=20
.step run=85 temp=20
.step run=86 temp=20
.step run=87 temp=20
.step run=88 temp=20
.step run=89 temp=20
.step run=90 temp=20
.step run=91 temp=20
.step run=92 temp=20
.step run=93 temp=20
.step run=94 temp=20
.step run=95 temp=20
.step run=96 temp=20
.step run=97 temp=20
.step run=98 temp=20
.step run=99 temp=20
.step run=100 temp=20
.step run=101 temp=20
.step run=102 temp=20
.step run=103 temp=20
.step run=104 temp=20
.step run=105 temp=20
.step run=106 temp=20
.step run=107 temp=20
.step run=108 temp=20
.step run=109 temp=20
.step run=110 temp=20
.step run=111 temp=20
.step run=112 temp=20
.step run=113 temp=20
.step run=114 temp=20
.step run=115 temp=20
.step run=116 temp=20
.step run=117 temp=20
.step run=118 temp=20
.step run=119 temp=20
.step run=120 temp=20
.step run=121 temp=20
.step run=122 temp=20
.step run=123 temp=20
.step run=124 temp=20
.step run=125 temp=20
.step run=126 temp=20
.step run=127 temp=20
.step run=128 temp=20
.step run=129 temp=20
.step run=130 temp=20
.step run=131 temp=20
.step run=132 temp=20
.step run=133 temp=20
.step run=134 temp=20
.step run=135 temp=20
.step run=136 temp=20
.step run=137 temp=20
.step run=138 temp=20
.step run=139 temp=20
.step run=140 temp=20
.step run=141 temp=20
.step run=142 temp=20
.step run=143 temp=20
.step run=144 temp=20
.step run=145 temp=20
.step run=146 temp=20
.step run=147 temp=20
.step run=148 temp=20
.step run=149 temp=20
.step run=150 temp=20
.step run=151 temp=20
.step run=152 temp=20
.step run=153 temp=20
.step run=154 temp=20
.step run=155 temp=20
.step run=156 temp=20
.step run=157 temp=20
.step run=158 temp=20
.step run=159 temp=20
.step run=160 temp=20
.step run=161 temp=20
.step run=162 temp=20
.step run=163 temp=20
.step run=164 temp=20
.step run=165 temp=20
.step run=166 temp=20
.step run=167 temp=20
.step run=168 temp=20
.step run=169 temp=20
.step run=170 temp=20
.step run=171 temp=20
.step run=172 temp=20
.step run=173 temp=20
.step run=174 temp=20
.step run=175 temp=20
.step run=176 temp=20
.step run=177 temp=20
.step run=178 temp=20
.step run=179 temp=20
.step run=180 temp=20
.step run=181 temp=20
.step run=182 temp=20
.step run=183 temp=20
.step run=184 temp=20
.step run=185 temp=20
.step run=186 temp=20
.step run=187 temp=20
.step run=188 temp=20
.step run=189 temp=20
.step run=190 temp=20
.step run=191 temp=20
.step run=192 temp=20
.step run=193 temp=20
.step run=194 temp=20
.step run=195 temp=20
.step run=196 temp=20
.step run=197 temp=20
.step run=198 temp=20
.step run=199 temp=20
.step run=200 temp=20
.step run=1 temp=30
.step run=2 temp=30
.step run=3 temp=30
.step run=4 temp=30
.step run=5 temp=30
.step run=6 temp=30
.step run=7 temp=30
.step run=8 temp=30
.step run=9 temp=30
.step run=10 temp=30
.step run=11 temp=30
.step run=12 temp=30
.step run=13 temp=30
.step run=14 temp=30
.step run=15 temp=30
.step run=16 temp=30
.step run=17 temp=30
.step run=18 temp=30
.step run=19 temp=30
.step run=20 temp=30
.step run=21 temp=30
.step run=22 temp=30
.step run=23 temp=30
.step run=24 temp=30
.step run=25 temp=30
.step run=26 temp=30
.step run=27 temp=30
.step run=28 temp=30
.step run=29 temp=30
.step run=30 temp=30
.step run=31 temp=30
.step run=32 temp=30
.step run=33 temp=30
.step run=34 temp=30
.step run=35 temp=30
.step run=36 temp=30
.step run=37 temp=30
.step run=38 temp=30
.step run=39 temp=30
.step run=40 temp=30
.step run=41 temp=30
.step run=42 temp=30
.step run=43 temp=30
.step run=44 temp=30
.step run=45 temp=30
.step run=46 temp=30
.step run=47 temp=30
.step run=48 temp=30
.step run=49 temp=30
.step run=50 temp=30
.step run=51 temp=30
.step run=52 temp=30
.step run=53 temp=30
.step run=54 temp=30
.step run=55 temp=30
.step run=56 temp=30
.step run=57 temp=30
.step run=58 temp=30
.step run=59 temp=30
.step run=60 temp=30
.step run=61 temp=30
.step run=62 temp=30
.step run=63 temp=30
.step run=64 temp=30
.step run=65 temp=30
.step run=66 temp=30
.step run=67 temp=30
.step run=68 temp=30
.step run=69 temp=30
.step run=70 temp=30
.step run=71 temp=30
.step run=72 temp=30
.step run=73 temp=30
.step run=74 temp=30
.step run=75 temp=30
.step run=76 temp=30
.step run=77 temp=30
.step run=78 temp=30
.step run=79 temp=30
.step run=80 temp=30
.step run=81 temp=30
.step run=82 temp=30
.step run=83 temp=30
.step run=84 temp=30
.step run=85 temp=30
.step run=86 temp=30
.step run=87 temp=30
.step run=88 temp=30
.step run=89 temp=30
.step run=90 temp=30
.step run=91 temp=30
.step run=92 temp=30
.step run=93 temp=30
.step run=94 temp=30
.step run=95 temp=30
.step run=96 temp=30
.step run=97 temp=30
.step run=98 temp=30
.step run=99 temp=30
.step run=100 temp=30
.step run=101 temp=30
.step run=102 temp=30
.step run=103 temp=30
.step run=104 temp=30
.step run=105 temp=30
.step run=106 temp=30
.step run=107 temp=30
.step run=108 temp=30
.step run=109 temp=30
.step run=110 temp=30
.step run=111 temp=30
.step run=112 temp=30
.step run=113 temp=30
.step run=114 temp=30
.step run=115 temp=30
.step run=116 temp=30
.step run=117 temp=30
.step run=118 temp=30
.step run=119 temp=30
.step run=120 temp=30
.step run=121 temp=30
.step run=122 temp=30
.step run=123 temp=30
.step run=124 temp=30
.step run=125 temp=30
.step run=126 temp=30
.step run=127 temp=30
.step run=128 temp=30
.step run=129 temp=30
.step run=130 temp=30
.step run=131 temp=30
.step run=132 temp=30
.step run=133 temp=30
.step run=134 temp=30
.step run=135 temp=30
.step run=136 temp=30
.step run=137 temp=30
.step run=138 temp=30
.step run=139 temp=30
.step run=140 temp=30
.step run=141 temp=30
.step run=142 temp=30
.step run=143 temp=30
.step run=144 temp=30
.step run=145 temp=30
.step run=146 temp=30
.step run=147 temp=30
.step run=148 temp=30
.step run=149 temp=30
.step run=150 temp=30
.step run=151 temp=30
.step run=152 temp=30
.step run=153 temp=30
.step run=154 temp=30
.step run=155 temp=30
.step run=156 temp=30
.step run=157 temp=30
.step run=158 temp=30
.step run=159 temp=30
.step run=160 temp=30
.step run=161 temp=30
.step run=162 temp=30
.step run=163 temp=30
.step run=164 temp=30
.step run=165 temp=30
.step run=166 temp=30
.step run=167 temp=30
.step run=168 temp=30
.step run=169 temp=30
.step run=170 temp=30
.step run=171 temp=30
.step run=172 temp=30
.step run=173 temp=30
.step run=174 temp=30
.step run=175 temp=30
.step run=176 temp=30
.step run=177 temp=30
.step run=178 temp=30
.step run=179 temp=30
.step run=180 temp=30
.step run=181 temp=30
.step run=182 temp=30
.step run=183 temp=30
.step run=184 temp=30
.step run=185 temp=30
.step run=186 temp=30
.step run=187 temp=30
.step run=188 temp=30
.step run=189 temp=30
.step run=190 temp=30
.step run=191 temp=30
.step run=192 temp=30
.step run=193 temp=30
.step run=194 temp=30
.step run=195 temp=30
.step run=196 temp=30
.step run=197 temp=30
.step run=198 temp=30
.step run=199 temp=30
.step run=200 temp=30
.step run=1 temp=40
.step run=2 temp=40
.step run=3 temp=40
.step run=4 temp=40
.step run=5 temp=40
.step run=6 temp=40
.step run=7 temp=40
.step run=8 temp=40
.step run=9 temp=40
.step run=10 temp=40
.step run=11 temp=40
.step run=12 temp=40
.step run=13 temp=40
.step run=14 temp=40
.step run=15 temp=40
.step run=16 temp=40
.step run=17 temp=40
.step run=18 temp=40
.step run=19 temp=40
.step run=20 temp=40
.step run=21 temp=40
.step run=22 temp=40
.step run=23 temp=40
.step run=24 temp=40
.step run=25 temp=40
.step run=26 temp=40
.step run=27 temp=40
.step run=28 temp=40
.step run=29 temp=40
.step run=30 temp=40
.step run=31 temp=40
.step run=32 temp=40
.step run=33 temp=40
.step run=34 temp=40
.step run=35 temp=40
.step run=36 temp=40
.step run=37 temp=40
.step run=38 temp=40
.step run=39 temp=40
.step run=40 temp=40
.step run=41 temp=40
.step run=42 temp=40
.step run=43 temp=40
.step run=44 temp=40
.step run=45 temp=40
.step run=46 temp=40
.step run=47 temp=40
.step run=48 temp=40
.step run=49 temp=40
.step run=50 temp=40
.step run=51 temp=40
.step run=52 temp=40
.step run=53 temp=40
.step run=54 temp=40
.step run=55 temp=40
.step run=56 temp=40
.step run=57 temp=40
.step run=58 temp=40
.step run=59 temp=40
.step run=60 temp=40
.step run=61 temp=40
.step run=62 temp=40
.step run=63 temp=40
.step run=64 temp=40
.step run=65 temp=40
.step run=66 temp=40
.step run=67 temp=40
.step run=68 temp=40
.step run=69 temp=40
.step run=70 temp=40
.step run=71 temp=40
.step run=72 temp=40
.step run=73 temp=40
.step run=74 temp=40
.step run=75 temp=40
.step run=76 temp=40
.step run=77 temp=40
.step run=78 temp=40
.step run=79 temp=40
.step run=80 temp=40
.step run=81 temp=40
.step run=82 temp=40
.step run=83 temp=40
.step run=84 temp=40
.step run=85 temp=40
.step run=86 temp=40
.step run=87 temp=40
.step run=88 temp=40
.step run=89 temp=40
.step run=90 temp=40
.step run=91 temp=40
.step run=92 temp=40
.step run=93 temp=40
.step run=94 temp=40
.step run=95 temp=40
.step run=96 temp=40
.step run=97 temp=40
.step run=98 temp=40
.step run=99 temp=40
.step run=100 temp=40
.step run=101 temp=40
.step run=102 temp=40
.step run=103 temp=40
.step run=104 temp=40
.step run=105 temp=40
.step run=106 temp=40
.step run=107 temp=40
.step run=108 temp=40
.step run=109 temp=40
.step run=110 temp=40
.step run=111 temp=40
.step run=112 temp=40
.step run=113 temp=40
.step run=114 temp=40
.step run=115 temp=40
.step run=116 temp=40
.step run=117 temp=40
.step run=118 temp=40
.step run=119 temp=40
.step run=120 temp=40
.step run=121 temp=40
.step run=122 temp=40
.step run=123 temp=40
.step run=124 temp=40
.step run=125 temp=40
.step run=126 temp=40
.step run=127 temp=40
.step run=128 temp=40
.step run=129 temp=40
.step run=130 temp=40
.step run=131 temp=40
.step run=132 temp=40
.step run=133 temp=40
.step run=134 temp=40
.step run=135 temp=40
.step run=136 temp=40
.step run=137 temp=40
.step run=138 temp=40
.step run=139 temp=40
.step run=140 temp=40
.step run=141 temp=40
.step run=142 temp=40
.step run=143 temp=40
.step run=144 temp=40
.step run=145 temp=40
.step run=146 temp=40
.step run=147 temp=40
.step run=148 temp=40
.step run=149 temp=40
.step run=150 temp=40
.step run=151 temp=40
.step run=152 temp=40
.step run=153 temp=40
.step run=154 temp=40
.step run=155 temp=40
.step run=156 temp=40
.step run=157 temp=40
.step run=158 temp=40
.step run=159 temp=40
.step run=160 temp=40
.step run=161 temp=40
.step run=162 temp=40
.step run=163 temp=40
.step run=164 temp=40
.step run=165 temp=40
.step run=166 temp=40
.step run=167 temp=40
.step run=168 temp=40
.step run=169 temp=40
.step run=170 temp=40
.step run=171 temp=40
.step run=172 temp=40
.step run=173 temp=40
.step run=174 temp=40
.step run=175 temp=40
.step run=176 temp=40
.step run=177 temp=40
.step run=178 temp=40
.step run=179 temp=40
.step run=180 temp=40
.step run=181 temp=40
.step run=182 temp=40
.step run=183 temp=40
.step run=184 temp=40
.step run=185 temp=40
.step run=186 temp=40
.step run=187 temp=40
.step run=188 temp=40
.step run=189 temp=40
.step run=190 temp=40
.step run=191 temp=40
.step run=192 temp=40
.step run=193 temp=40
.step run=194 temp=40
.step run=195 temp=40
.step run=196 temp=40
.step run=197 temp=40
.step run=198 temp=40
.step run=199 temp=40
.step run=200 temp=40
.step run=1 temp=50
.step run=2 temp=50
.step run=3 temp=50
.step run=4 temp=50
.step run=5 temp=50
.step run=6 temp=50
.step run=7 temp=50
.step run=8 temp=50
.step run=9 temp=50
.step run=10 temp=50
.step run=11 temp=50
.step run=12 temp=50
.step run=13 temp=50
.step run=14 temp=50
.step run=15 temp=50
.step run=16 temp=50
.step run=17 temp=50
.step run=18 temp=50
.step run=19 temp=50
.step run=20 temp=50
.step run=21 temp=50
.step run=22 temp=50
.step run=23 temp=50
.step run=24 temp=50
.step run=25 temp=50
.step run=26 temp=50
.step run=27 temp=50
.step run=28 temp=50
.step run=29 temp=50
.step run=30 temp=50
.step run=31 temp=50
.step run=32 temp=50
.step run=33 temp=50
.step run=34 temp=50
.step run=35 temp=50
.step run=36 temp=50
.step run=37 temp=50
.step run=38 temp=50
.step run=39 temp=50
.step run=40 temp=50
.step run=41 temp=50
.step run=42 temp=50
.step run=43 temp=50
.step run=44 temp=50
.step run=45 temp=50
.step run=46 temp=50
.step run=47 temp=50
.step run=48 temp=50
.step run=49 temp=50
.step run=50 temp=50
.step run=51 temp=50
.step run=52 temp=50
.step run=53 temp=50
.step run=54 temp=50
.step run=55 temp=50
.step run=56 temp=50
.step run=57 temp=50
.step run=58 temp=50
.step run=59 temp=50
.step run=60 temp=50
.step run=61 temp=50
.step run=62 temp=50
.step run=63 temp=50
.step run=64 temp=50
.step run=65 temp=50
.step run=66 temp=50
.step run=67 temp=50
.step run=68 temp=50
.step run=69 temp=50
.step run=70 temp=50
.step run=71 temp=50
.step run=72 temp=50
.step run=73 temp=50
.step run=74 temp=50
.step run=75 temp=50
.step run=76 temp=50
.step run=77 temp=50
.step run=78 temp=50
.step run=79 temp=50
.step run=80 temp=50
.step run=81 temp=50
.step run=82 temp=50
.step run=83 temp=50
.step run=84 temp=50
.step run=85 temp=50
.step run=86 temp=50
.step run=87 temp=50
.step run=88 temp=50
.step run=89 temp=50
.step run=90 temp=50
.step run=91 temp=50
.step run=92 temp=50
.step run=93 temp=50
.step run=94 temp=50
.step run=95 temp=50
.step run=96 temp=50
.step run=97 temp=50
.step run=98 temp=50
.step run=99 temp=50
.step run=100 temp=50
.step run=101 temp=50
.step run=102 temp=50
.step run=103 temp=50
.step run=104 temp=50
.step run=105 temp=50
.step run=106 temp=50
.step run=107 temp=50
.step run=108 temp=50
.step run=109 temp=50
.step run=110 temp=50
.step run=111 temp=50
.step run=112 temp=50
.step run=113 temp=50
.step run=114 temp=50
.step run=115 temp=50
.step run=116 temp=50
.step run=117 temp=50
.step run=118 temp=50
.step run=119 temp=50
.step run=120 temp=50
.step run=121 temp=50
.step run=122 temp=50
.step run=123 temp=50
.step run=124 temp=50
.step run=125 temp=50
.step run=126 temp=50
.step run=127 temp=50
.step run=128 temp=50
.step run=129 temp=50
.step run=130 temp=50
.step run=131 temp=50
.step run=132 temp=50
.step run=133 temp=50
.step run=134 temp=50
.step run=135 temp=50
.step run=136 temp=50
.step run=137 temp=50
.step run=138 temp=50
.step run=139 temp=50
.step run=140 temp=50
.step run=141 temp=50
.step run=142 temp=50
.step run=143 temp=50
.step run=144 temp=50
.step run=145 temp=50
.step run=146 temp=50
.step run=147 temp=50
.step run=148 temp=50
.step run=149 temp=50
.step run=150 temp=50
.step run=151 temp=50
.step run=152 temp=50
.step run=153 temp=50
.step run=154 temp=50
.step run=155 temp=50
.step run=156 temp=50
.step run=157 temp=50
.step run=158 temp=50
.step run=159 temp=50
.step run=160 temp=50
.step run=161 temp=50
.step run=162 temp=50
.step run=163 temp=50
.step run=164 temp=50
.step run=165 temp=50
.step run=166 temp=50
.step run=167 temp=50
.step run=168 temp=50
.step run=169 temp=50
.step run=170 temp=50
.step run=171 temp=50
.step run=172 temp=50
.step run=173 temp=50
.step run=174 temp=50
.step run=175 temp=50
.step run=176 temp=50
.step run=177 temp=50
.step run=178 temp=50
.step run=179 temp=50
.step run=180 temp=50
.step run=181 temp=50
.step run=182 temp=50
.step run=183 temp=50
.step run=184 temp=50
.step run=185 temp=50
.step run=186 temp=50
.step run=187 temp=50
.step run=188 temp=50
.step run=189 temp=50
.step run=190 temp=50
.step run=191 temp=50
.step run=192 temp=50
.step run=193 temp=50
.step run=194 temp=50
.step run=195 temp=50
.step run=196 temp=50
.step run=197 temp=50
.step run=198 temp=50
.step run=199 temp=50
.step run=200 temp=50
.step run=1 temp=60
.step run=2 temp=60
.step run=3 temp=60
.step run=4 temp=60
.step run=5 temp=60
.step run=6 temp=60
.step run=7 temp=60
.step run=8 temp=60
.step run=9 temp=60
.step run=10 temp=60
.step run=11 temp=60
.step run=12 temp=60
.step run=13 temp=60
.step run=14 temp=60
.step run=15 temp=60
.step run=16 temp=60
.step run=17 temp=60
.step run=18 temp=60
.step run=19 temp=60
.step run=20 temp=60
.step run=21 temp=60
.step run=22 temp=60
.step run=23 temp=60
.step run=24 temp=60
.step run=25 temp=60
.step run=26 temp=60
.step run=27 temp=60
.step run=28 temp=60
.step run=29 temp=60
.step run=30 temp=60
.step run=31 temp=60
.step run=32 temp=60
.step run=33 temp=60
.step run=34 temp=60
.step run=35 temp=60
.step run=36 temp=60
.step run=37 temp=60
.step run=38 temp=60
.step run=39 temp=60
.step run=40 temp=60
.step run=41 temp=60
.step run=42 temp=60
.step run=43 temp=60
.step run=44 temp=60
.step run=45 temp=60
.step run=46 temp=60
.step run=47 temp=60
.step run=48 temp=60
.step run=49 temp=60
.step run=50 temp=60
.step run=51 temp=60
.step run=52 temp=60
.step run=53 temp=60
.step run=54 temp=60
.step run=55 temp=60
.step run=56 temp=60
.step run=57 temp=60
.step run=58 temp=60
.step run=59 temp=60
.step run=60 temp=60
.step run=61 temp=60
.step run=62 temp=60
.step run=63 temp=60
.step run=64 temp=60
.step run=65 temp=60
.step run=66 temp=60
.step run=67 temp=60
.step run=68 temp=60
.step run=69 temp=60
.step run=70 temp=60
.step run=71 temp=60
.step run=72 temp=60
.step run=73 temp=60
.step run=74 temp=60
.step run=75 temp=60
.step run=76 temp=60
.step run=77 temp=60
.step run=78 temp=60
.step run=79 temp=60
.step run=80 temp=60
.step run=81 temp=60
.step run=82 temp=60
.step run=83 temp=60
.step run=84 temp=60
.step run=85 temp=60
.step run=86 temp=60
.step run=87 temp=60
.step run=88 temp=60
.step run=89 temp=60
.step run=90 temp=60
.step run=91 temp=60
.step run=92 temp=60
.step run=93 temp=60
.step run=94 temp=60
.step run=95 temp=60
.step run=96 temp=60
.step run=97 temp=60
.step run=98 temp=60
.step run=99 temp=60
.step run=100 temp=60
.step run=101 temp=60
.step run=102 temp=60
.step run=103 temp=60
.step run=104 temp=60
.step run=105 temp=60
.step run=106 temp=60
.step run=107 temp=60
.step run=108 temp=60
.step run=109 temp=60
.step run=110 temp=60
.step run=111 temp=60
.step run=112 temp=60
.step run=113 temp=60
.step run=114 temp=60
.step run=115 temp=60
.step run=116 temp=60
.step run=117 temp=60
.step run=118 temp=60
.step run=119 temp=60
.step run=120 temp=60
.step run=121 temp=60
.step run=122 temp=60
.step run=123 temp=60
.step run=124 temp=60
.step run=125 temp=60
.step run=126 temp=60
.step run=127 temp=60
.step run=128 temp=60
.step run=129 temp=60
.step run=130 temp=60
.step run=131 temp=60
.step run=132 temp=60
.step run=133 temp=60
.step run=134 temp=60
.step run=135 temp=60
.step run=136 temp=60
.step run=137 temp=60
.step run=138 temp=60
.step run=139 temp=60
.step run=140 temp=60
.step run=141 temp=60
.step run=142 temp=60
.step run=143 temp=60
.step run=144 temp=60
.step run=145 temp=60
.step run=146 temp=60
.step run=147 temp=60
.step run=148 temp=60
.step run=149 temp=60
.step run=150 temp=60
.step run=151 temp=60
.step run=152 temp=60
.step run=153 temp=60
.step run=154 temp=60
.step run=155 temp=60
.step run=156 temp=60
.step run=157 temp=60
.step run=158 temp=60
.step run=159 temp=60
.step run=160 temp=60
.step run=161 temp=60
.step run=162 temp=60
.step run=163 temp=60
.step run=164 temp=60
.step run=165 temp=60
.step run=166 temp=60
.step run=167 temp=60
.step run=168 temp=60
.step run=169 temp=60
.step run=170 temp=60
.step run=171 temp=60
.step run=172 temp=60
.step run=173 temp=60
.step run=174 temp=60
.step run=175 temp=60
.step run=176 temp=60
.step run=177 temp=60
.step run=178 temp=60
.step run=179 temp=60
.step run=180 temp=60
.step run=181 temp=60
.step run=182 temp=60
.step run=183 temp=60
.step run=184 temp=60
.step run=185 temp=60
.step run=186 temp=60
.step run=187 temp=60
.step run=188 temp=60
.step run=189 temp=60
.step run=190 temp=60
.step run=191 temp=60
.step run=192 temp=60
.step run=193 temp=60
.step run=194 temp=60
.step run=195 temp=60
.step run=196 temp=60
.step run=197 temp=60
.step run=198 temp=60
.step run=199 temp=60
.step run=200 temp=60

Date: Mon May 11 17:01:50 2020
Total elapsed time: 352.528 seconds.

tnom = 27
temp = 27
method = trap
totiter = 1287
traniter = 0
tranpoints = 0
accept = 0
rejected = 0
matrix size = 138
fillins = 166
solver = Normal
Matrix Compiler1:     938 opcodes  4.1/2.5/[0.8]
Matrix Compiler2: 14.15 KB object code size  2.2/2.9/[0.7]

