Circuit: * C:\Users\gabri\Google Drive\ESP32\SIMULATIONS\4-20mA\4-20mA_test3.asc

.step run=1 temp=0
Direct Newton iteration failed to find .op point.  (Use ".option noopiter" to skip.)
Starting Gmin stepping
Gmin = 10
Gmin = 1.07374
Gmin = 0.115292
Gmin = 0.0123794
Gmin = 0.00132923
Gmin = 0.000142725
vernier = 0.5
vernier = 0.25
Gmin = 4.89078e-005
vernier = 0.125
vernier = 0.0625
vernier = 0.0833333
Gmin = 4.61456e-005
vernier = 0.111111
Gmin = 3.60509e-005
vernier = 0.148148
vernier = 0.197531
Gmin = 2.39009e-005
vernier = 0.263374
vernier = 0.351165
Gmin = 1.25111e-005
vernier = 0.46822
Gmin = 4.59901e-006
vernier = 0.624294
vernier = 0.832392
Gmin = 9.04365e-007
vernier = 1
Gmin = 1.03958e-007
Gmin = 1.11624e-008
Gmin = 1.19856e-009
Gmin = 1.28694e-010
Gmin = 1.38184e-011
Gmin = 1.48374e-012
Gmin = 1.59316e-013
Gmin = 0
Gmin stepping succeeded in finding the operating point.

Direct Newton iteration failed to find .op point.  (Use ".option noopiter" to skip.)
Starting Gmin stepping
Gmin = 10
Gmin = 1.07374
Gmin = 0.115292
Gmin = 0.0123794
Gmin = 0.00132923
Gmin = 0.000142725
vernier = 0.5
vernier = 0.25
Gmin = 4.89078e-005
vernier = 0.125
vernier = 0.0625
vernier = 0.03125
vernier = 0.015625
vernier = 0.0078125
Gmin = 5.1165e-005
vernier = 0.0104167
Gmin = 5.00137e-005
vernier = 0.0138889
vernier = 0.0185185
Gmin = 4.81847e-005
vernier = 0.0246913
vernier = 0.0329218
Gmin = 4.54251e-005
vernier = 0.0438957
Gmin = 4.12855e-005
vernier = 0.0585276
vernier = 0.0780367
Gmin = 3.5321e-005
vernier = 0.104049
vernier = 0.138732
Gmin = 2.76145e-005
vernier = 0.184976
Gmin = 1.85753e-005
vernier = 0.246634
vernier = 0.328846
Gmin = 9.78266e-006
vernier = 0.438461
vernier = 0.584614
Gmin = 3.60781e-006
vernier = 0.779486
Gmin = 7.48899e-007
vernier = 1
Gmin = 8.41225e-008
Gmin = 9.03258e-009
Gmin = 9.69866e-010
Gmin = 1.04139e-010
Gmin = 1.11818e-011
Gmin = 1.20064e-012
Gmin = 1.28917e-013
Gmin = 0
Gmin stepping succeeded in finding the operating point.

.step run=2 temp=0
.step run=3 temp=0
.step run=4 temp=0
.step run=5 temp=0
.step run=6 temp=0
.step run=7 temp=0
.step run=8 temp=0
.step run=9 temp=0
.step run=10 temp=0
.step run=11 temp=0
.step run=12 temp=0
.step run=13 temp=0
.step run=14 temp=0
.step run=15 temp=0
.step run=16 temp=0
.step run=17 temp=0
.step run=18 temp=0
.step run=19 temp=0
.step run=20 temp=0
.step run=21 temp=0
.step run=22 temp=0
.step run=23 temp=0
.step run=24 temp=0
.step run=25 temp=0
.step run=26 temp=0
.step run=27 temp=0
.step run=28 temp=0
.step run=29 temp=0
.step run=30 temp=0
.step run=31 temp=0
.step run=32 temp=0
.step run=33 temp=0
.step run=34 temp=0
.step run=35 temp=0
.step run=36 temp=0
.step run=37 temp=0
.step run=38 temp=0
.step run=39 temp=0
.step run=40 temp=0
.step run=41 temp=0
.step run=42 temp=0
.step run=43 temp=0
.step run=44 temp=0
.step run=45 temp=0
.step run=46 temp=0
.step run=47 temp=0
.step run=48 temp=0
.step run=49 temp=0
.step run=50 temp=0
.step run=1 temp=10
.step run=2 temp=10
.step run=3 temp=10
.step run=4 temp=10
.step run=5 temp=10
.step run=6 temp=10
.step run=7 temp=10
.step run=8 temp=10
.step run=9 temp=10
.step run=10 temp=10
.step run=11 temp=10
.step run=12 temp=10
.step run=13 temp=10
.step run=14 temp=10
.step run=15 temp=10
.step run=16 temp=10
.step run=17 temp=10
.step run=18 temp=10
.step run=19 temp=10
.step run=20 temp=10
.step run=21 temp=10
.step run=22 temp=10
.step run=23 temp=10
.step run=24 temp=10
.step run=25 temp=10
.step run=26 temp=10
.step run=27 temp=10
.step run=28 temp=10
.step run=29 temp=10
.step run=30 temp=10
.step run=31 temp=10
.step run=32 temp=10
.step run=33 temp=10
.step run=34 temp=10
.step run=35 temp=10
.step run=36 temp=10
.step run=37 temp=10
.step run=38 temp=10
.step run=39 temp=10
.step run=40 temp=10
.step run=41 temp=10
.step run=42 temp=10
.step run=43 temp=10
.step run=44 temp=10
.step run=45 temp=10
.step run=46 temp=10
.step run=47 temp=10
.step run=48 temp=10
.step run=49 temp=10
.step run=50 temp=10
.step run=1 temp=20
.step run=2 temp=20
.step run=3 temp=20
.step run=4 temp=20
.step run=5 temp=20
.step run=6 temp=20
.step run=7 temp=20
.step run=8 temp=20
.step run=9 temp=20
.step run=10 temp=20
.step run=11 temp=20
.step run=12 temp=20
.step run=13 temp=20
.step run=14 temp=20
.step run=15 temp=20
.step run=16 temp=20
.step run=17 temp=20
.step run=18 temp=20
.step run=19 temp=20
.step run=20 temp=20
.step run=21 temp=20
.step run=22 temp=20
.step run=23 temp=20
.step run=24 temp=20
.step run=25 temp=20
.step run=26 temp=20
.step run=27 temp=20
.step run=28 temp=20
.step run=29 temp=20
.step run=30 temp=20
.step run=31 temp=20
.step run=32 temp=20
.step run=33 temp=20
.step run=34 temp=20
.step run=35 temp=20
.step run=36 temp=20
.step run=37 temp=20
.step run=38 temp=20
.step run=39 temp=20
.step run=40 temp=20
.step run=41 temp=20
.step run=42 temp=20
.step run=43 temp=20
.step run=44 temp=20
.step run=45 temp=20
.step run=46 temp=20
.step run=47 temp=20
.step run=48 temp=20
.step run=49 temp=20
.step run=50 temp=20
.step run=1 temp=30
.step run=2 temp=30
.step run=3 temp=30
.step run=4 temp=30
.step run=5 temp=30
.step run=6 temp=30
.step run=7 temp=30
.step run=8 temp=30
.step run=9 temp=30
.step run=10 temp=30
.step run=11 temp=30
.step run=12 temp=30
.step run=13 temp=30
.step run=14 temp=30
.step run=15 temp=30
.step run=16 temp=30
.step run=17 temp=30
.step run=18 temp=30
.step run=19 temp=30
.step run=20 temp=30
.step run=21 temp=30
.step run=22 temp=30
.step run=23 temp=30
.step run=24 temp=30
.step run=25 temp=30
.step run=26 temp=30
.step run=27 temp=30
.step run=28 temp=30
.step run=29 temp=30
.step run=30 temp=30
.step run=31 temp=30
.step run=32 temp=30
.step run=33 temp=30
.step run=34 temp=30
.step run=35 temp=30
.step run=36 temp=30
.step run=37 temp=30
.step run=38 temp=30
.step run=39 temp=30
.step run=40 temp=30
.step run=41 temp=30
.step run=42 temp=30
.step run=43 temp=30
.step run=44 temp=30
.step run=45 temp=30
.step run=46 temp=30
.step run=47 temp=30
.step run=48 temp=30
.step run=49 temp=30
.step run=50 temp=30
.step run=1 temp=40
.step run=2 temp=40
.step run=3 temp=40
.step run=4 temp=40
.step run=5 temp=40
.step run=6 temp=40
.step run=7 temp=40
.step run=8 temp=40
.step run=9 temp=40
.step run=10 temp=40
.step run=11 temp=40
.step run=12 temp=40
.step run=13 temp=40
.step run=14 temp=40
.step run=15 temp=40
.step run=16 temp=40
.step run=17 temp=40
.step run=18 temp=40
.step run=19 temp=40
.step run=20 temp=40
.step run=21 temp=40
.step run=22 temp=40
.step run=23 temp=40
.step run=24 temp=40
.step run=25 temp=40
.step run=26 temp=40
.step run=27 temp=40
.step run=28 temp=40
.step run=29 temp=40
.step run=30 temp=40
.step run=31 temp=40
.step run=32 temp=40
.step run=33 temp=40
.step run=34 temp=40
.step run=35 temp=40
.step run=36 temp=40
.step run=37 temp=40
.step run=38 temp=40
.step run=39 temp=40
.step run=40 temp=40
.step run=41 temp=40
.step run=42 temp=40
.step run=43 temp=40
.step run=44 temp=40
.step run=45 temp=40
.step run=46 temp=40
.step run=47 temp=40
.step run=48 temp=40
.step run=49 temp=40
.step run=50 temp=40
.step run=1 temp=50
.step run=2 temp=50
.step run=3 temp=50
.step run=4 temp=50
.step run=5 temp=50
.step run=6 temp=50
.step run=7 temp=50
.step run=8 temp=50
.step run=9 temp=50
.step run=10 temp=50
.step run=11 temp=50
.step run=12 temp=50
.step run=13 temp=50
.step run=14 temp=50
.step run=15 temp=50
.step run=16 temp=50
.step run=17 temp=50
.step run=18 temp=50
.step run=19 temp=50
.step run=20 temp=50
.step run=21 temp=50
.step run=22 temp=50
.step run=23 temp=50
.step run=24 temp=50
.step run=25 temp=50
.step run=26 temp=50
.step run=27 temp=50
.step run=28 temp=50
.step run=29 temp=50
.step run=30 temp=50
.step run=31 temp=50
.step run=32 temp=50
.step run=33 temp=50
.step run=34 temp=50
.step run=35 temp=50
.step run=36 temp=50
.step run=37 temp=50
.step run=38 temp=50
.step run=39 temp=50
.step run=40 temp=50
.step run=41 temp=50
.step run=42 temp=50
.step run=43 temp=50
.step run=44 temp=50
.step run=45 temp=50
.step run=46 temp=50
.step run=47 temp=50
.step run=48 temp=50
.step run=49 temp=50
.step run=50 temp=50
.step run=1 temp=60
.step run=2 temp=60
.step run=3 temp=60
.step run=4 temp=60
.step run=5 temp=60
.step run=6 temp=60
.step run=7 temp=60
.step run=8 temp=60
.step run=9 temp=60
.step run=10 temp=60
.step run=11 temp=60
.step run=12 temp=60
.step run=13 temp=60
.step run=14 temp=60
.step run=15 temp=60
.step run=16 temp=60
.step run=17 temp=60
.step run=18 temp=60
.step run=19 temp=60
.step run=20 temp=60
.step run=21 temp=60
.step run=22 temp=60
.step run=23 temp=60
.step run=24 temp=60
.step run=25 temp=60
.step run=26 temp=60
.step run=27 temp=60
.step run=28 temp=60
.step run=29 temp=60
.step run=30 temp=60
.step run=31 temp=60
.step run=32 temp=60
.step run=33 temp=60
.step run=34 temp=60
.step run=35 temp=60
.step run=36 temp=60
.step run=37 temp=60
.step run=38 temp=60
.step run=39 temp=60
.step run=40 temp=60
.step run=41 temp=60
.step run=42 temp=60
.step run=43 temp=60
.step run=44 temp=60
.step run=45 temp=60
.step run=46 temp=60
.step run=47 temp=60
.step run=48 temp=60
.step run=49 temp=60
.step run=50 temp=60

Date: Tue May 12 01:37:39 2020
Total elapsed time: 161.117 seconds.

tnom = 27
temp = 27
method = trap
totiter = 2791
traniter = 0
tranpoints = 0
accept = 0
rejected = 0
matrix size = 138
fillins = 170
solver = Normal
Matrix Compiler1: 16.65 KB object code size  4.7/2.5/[0.9]
Matrix Compiler2: 14.20 KB object code size  2.2/2.9/[0.8]

