Circuit: * C:\Users\gabri\Google Drive\ESP32\SIMULATIONS\4-20mA\4-20mA_test1.asc

.step run=1 temp=0
Direct Newton iteration failed to find .op point.  (Use ".option noopiter" to skip.)
Starting Gmin stepping
Gmin = 10
Gmin = 1.07374
Gmin = 0.115292
Gmin = 0.0123794
Gmin = 0.00132923
Gmin = 0.000142725
vernier = 0.5
vernier = 0.25
Gmin = 5.17847e-005
vernier = 0.333333
vernier = 0.444444
Gmin = 2.40372e-005
vernier = 0.592592
Gmin = 7.1139e-006
vernier = 0.790123
vernier = 1
Gmin = 1.07562e-006
Gmin = 1.15494e-007
Gmin = 1.24011e-008
Gmin = 1.33156e-009
Gmin = 1.42975e-010
Gmin = 1.53518e-011
Gmin = 1.64839e-012
Gmin = 1.76994e-013
Gmin = 0
Gmin stepping succeeded in finding the operating point.

.step run=2 temp=0
.step run=3 temp=0
.step run=4 temp=0
.step run=5 temp=0
.step run=6 temp=0
.step run=7 temp=0
.step run=8 temp=0
.step run=9 temp=0
.step run=10 temp=0
.step run=11 temp=0
.step run=12 temp=0
.step run=13 temp=0
.step run=14 temp=0
.step run=15 temp=0
.step run=16 temp=0
.step run=17 temp=0
.step run=18 temp=0
.step run=19 temp=0
.step run=20 temp=0
.step run=21 temp=0
.step run=22 temp=0
.step run=23 temp=0
.step run=24 temp=0
.step run=25 temp=0
.step run=26 temp=0
.step run=27 temp=0
.step run=28 temp=0
.step run=29 temp=0
.step run=30 temp=0
.step run=31 temp=0
.step run=32 temp=0
.step run=33 temp=0
.step run=34 temp=0
.step run=35 temp=0
.step run=36 temp=0
.step run=37 temp=0
.step run=38 temp=0
.step run=39 temp=0
.step run=40 temp=0
.step run=41 temp=0
.step run=42 temp=0
.step run=43 temp=0
.step run=44 temp=0
.step run=45 temp=0
.step run=46 temp=0
.step run=47 temp=0
.step run=48 temp=0
.step run=49 temp=0
.step run=50 temp=0
.step run=1 temp=10
.step run=2 temp=10
.step run=3 temp=10
.step run=4 temp=10
.step run=5 temp=10
.step run=6 temp=10
.step run=7 temp=10
.step run=8 temp=10
.step run=9 temp=10
.step run=10 temp=10
.step run=11 temp=10
.step run=12 temp=10
.step run=13 temp=10
.step run=14 temp=10
.step run=15 temp=10
.step run=16 temp=10
.step run=17 temp=10
.step run=18 temp=10
.step run=19 temp=10
.step run=20 temp=10
.step run=21 temp=10
.step run=22 temp=10
.step run=23 temp=10
.step run=24 temp=10
.step run=25 temp=10
.step run=26 temp=10
.step run=27 temp=10
.step run=28 temp=10
.step run=29 temp=10
.step run=30 temp=10
.step run=31 temp=10
.step run=32 temp=10
.step run=33 temp=10
.step run=34 temp=10
.step run=35 temp=10
.step run=36 temp=10
.step run=37 temp=10
.step run=38 temp=10
.step run=39 temp=10
.step run=40 temp=10
.step run=41 temp=10
.step run=42 temp=10
.step run=43 temp=10
.step run=44 temp=10
.step run=45 temp=10
.step run=46 temp=10
.step run=47 temp=10
.step run=48 temp=10
.step run=49 temp=10
.step run=50 temp=10
.step run=1 temp=20
.step run=2 temp=20
.step run=3 temp=20
.step run=4 temp=20
.step run=5 temp=20
.step run=6 temp=20
.step run=7 temp=20
.step run=8 temp=20
.step run=9 temp=20
.step run=10 temp=20
.step run=11 temp=20
.step run=12 temp=20
.step run=13 temp=20
.step run=14 temp=20
.step run=15 temp=20
.step run=16 temp=20
.step run=17 temp=20
.step run=18 temp=20
.step run=19 temp=20
.step run=20 temp=20
.step run=21 temp=20
.step run=22 temp=20
.step run=23 temp=20
.step run=24 temp=20
.step run=25 temp=20
.step run=26 temp=20
.step run=27 temp=20
.step run=28 temp=20
.step run=29 temp=20
.step run=30 temp=20
.step run=31 temp=20
.step run=32 temp=20
.step run=33 temp=20
.step run=34 temp=20
.step run=35 temp=20
.step run=36 temp=20
.step run=37 temp=20
.step run=38 temp=20
.step run=39 temp=20
.step run=40 temp=20
.step run=41 temp=20
.step run=42 temp=20
.step run=43 temp=20
.step run=44 temp=20
.step run=45 temp=20
.step run=46 temp=20
.step run=47 temp=20
.step run=48 temp=20
.step run=49 temp=20
.step run=50 temp=20
.step run=1 temp=30
.step run=2 temp=30
.step run=3 temp=30
.step run=4 temp=30
.step run=5 temp=30
.step run=6 temp=30
.step run=7 temp=30
.step run=8 temp=30
.step run=9 temp=30
.step run=10 temp=30
.step run=11 temp=30
.step run=12 temp=30
.step run=13 temp=30
.step run=14 temp=30
.step run=15 temp=30
.step run=16 temp=30
.step run=17 temp=30
.step run=18 temp=30
.step run=19 temp=30
.step run=20 temp=30
.step run=21 temp=30
.step run=22 temp=30
.step run=23 temp=30
.step run=24 temp=30
.step run=25 temp=30
.step run=26 temp=30
.step run=27 temp=30
.step run=28 temp=30
.step run=29 temp=30
.step run=30 temp=30
.step run=31 temp=30
.step run=32 temp=30
.step run=33 temp=30
.step run=34 temp=30
.step run=35 temp=30
.step run=36 temp=30
.step run=37 temp=30
.step run=38 temp=30
.step run=39 temp=30
.step run=40 temp=30
.step run=41 temp=30
.step run=42 temp=30
.step run=43 temp=30
.step run=44 temp=30
.step run=45 temp=30
.step run=46 temp=30
.step run=47 temp=30
.step run=48 temp=30
.step run=49 temp=30
.step run=50 temp=30
.step run=1 temp=40
.step run=2 temp=40
.step run=3 temp=40
.step run=4 temp=40
.step run=5 temp=40
.step run=6 temp=40
.step run=7 temp=40
.step run=8 temp=40
.step run=9 temp=40
.step run=10 temp=40
.step run=11 temp=40
.step run=12 temp=40
.step run=13 temp=40
.step run=14 temp=40
.step run=15 temp=40
.step run=16 temp=40
.step run=17 temp=40
.step run=18 temp=40
.step run=19 temp=40
.step run=20 temp=40
.step run=21 temp=40
.step run=22 temp=40
.step run=23 temp=40
.step run=24 temp=40
.step run=25 temp=40
.step run=26 temp=40
.step run=27 temp=40
.step run=28 temp=40
.step run=29 temp=40
.step run=30 temp=40
.step run=31 temp=40
.step run=32 temp=40
.step run=33 temp=40
.step run=34 temp=40
.step run=35 temp=40
.step run=36 temp=40
.step run=37 temp=40
.step run=38 temp=40
.step run=39 temp=40
.step run=40 temp=40
.step run=41 temp=40
.step run=42 temp=40
.step run=43 temp=40
.step run=44 temp=40
.step run=45 temp=40
.step run=46 temp=40
.step run=47 temp=40
.step run=48 temp=40
.step run=49 temp=40
.step run=50 temp=40
.step run=1 temp=50
.step run=2 temp=50
.step run=3 temp=50
.step run=4 temp=50
.step run=5 temp=50
.step run=6 temp=50
.step run=7 temp=50
.step run=8 temp=50
.step run=9 temp=50
.step run=10 temp=50
.step run=11 temp=50
.step run=12 temp=50
.step run=13 temp=50
.step run=14 temp=50
.step run=15 temp=50
.step run=16 temp=50
.step run=17 temp=50
.step run=18 temp=50
.step run=19 temp=50
.step run=20 temp=50
.step run=21 temp=50
.step run=22 temp=50
.step run=23 temp=50
.step run=24 temp=50
.step run=25 temp=50
.step run=26 temp=50
.step run=27 temp=50
.step run=28 temp=50
.step run=29 temp=50
.step run=30 temp=50
.step run=31 temp=50
.step run=32 temp=50
.step run=33 temp=50
.step run=34 temp=50
.step run=35 temp=50
.step run=36 temp=50
.step run=37 temp=50
.step run=38 temp=50
.step run=39 temp=50
.step run=40 temp=50
.step run=41 temp=50
.step run=42 temp=50
.step run=43 temp=50
.step run=44 temp=50
.step run=45 temp=50
.step run=46 temp=50
.step run=47 temp=50
.step run=48 temp=50
.step run=49 temp=50
.step run=50 temp=50
.step run=1 temp=60
.step run=2 temp=60
.step run=3 temp=60
.step run=4 temp=60
.step run=5 temp=60
.step run=6 temp=60
.step run=7 temp=60
.step run=8 temp=60
.step run=9 temp=60
.step run=10 temp=60
.step run=11 temp=60
.step run=12 temp=60
.step run=13 temp=60
.step run=14 temp=60
.step run=15 temp=60
.step run=16 temp=60
.step run=17 temp=60
.step run=18 temp=60
.step run=19 temp=60
.step run=20 temp=60
.step run=21 temp=60
.step run=22 temp=60
.step run=23 temp=60
.step run=24 temp=60
.step run=25 temp=60
.step run=26 temp=60
.step run=27 temp=60
.step run=28 temp=60
.step run=29 temp=60
.step run=30 temp=60
.step run=31 temp=60
.step run=32 temp=60
.step run=33 temp=60
.step run=34 temp=60
.step run=35 temp=60
.step run=36 temp=60
.step run=37 temp=60
.step run=38 temp=60
.step run=39 temp=60
.step run=40 temp=60
.step run=41 temp=60
.step run=42 temp=60
.step run=43 temp=60
.step run=44 temp=60
.step run=45 temp=60
.step run=46 temp=60
.step run=47 temp=60
.step run=48 temp=60
.step run=49 temp=60
.step run=50 temp=60


Measurement "efff" FAIL'ed


Date: Tue May 12 21:46:05 2020
Total elapsed time: 57.585 seconds.

tnom = 27
temp = 27
method = trap
totiter = 1399
traniter = 0
tranpoints = 0
accept = 0
rejected = 0
matrix size = 138
fillins = 166
solver = Normal
Matrix Compiler1:     938 opcodes  3.7/2.3/[0.8]
Matrix Compiler2: 14.15 KB object code size  2.1/2.6/[0.7]

