Circuit: * C:\Users\gabri\Google Drive\ESP32\SIMULATIONS\4-20mA\Draft1.asc

.step temp=0°C run=1
.step temp=5°C run=1
.step temp=10°C run=1
.step temp=15°C run=1
.step temp=20°C run=1
.step temp=25°C run=1
.step temp=30°C run=1
.step temp=35°C run=1
.step temp=40°C run=1
.step temp=45°C run=1
.step temp=50°C run=1
.step temp=55°C run=1
.step temp=60°C run=1
.step temp=0°C run=2
.step temp=5°C run=2
.step temp=10°C run=2
.step temp=15°C run=2
.step temp=20°C run=2
.step temp=25°C run=2
.step temp=30°C run=2
.step temp=35°C run=2
.step temp=40°C run=2
.step temp=45°C run=2
.step temp=50°C run=2
.step temp=55°C run=2
.step temp=60°C run=2
.step temp=0°C run=3
.step temp=5°C run=3
.step temp=10°C run=3
.step temp=15°C run=3
.step temp=20°C run=3
.step temp=25°C run=3
.step temp=30°C run=3
.step temp=35°C run=3
.step temp=40°C run=3
.step temp=45°C run=3
.step temp=50°C run=3
.step temp=55°C run=3
.step temp=60°C run=3
.step temp=0°C run=4
.step temp=5°C run=4
.step temp=10°C run=4
.step temp=15°C run=4
.step temp=20°C run=4
.step temp=25°C run=4
.step temp=30°C run=4
.step temp=35°C run=4
.step temp=40°C run=4
.step temp=45°C run=4
.step temp=50°C run=4
.step temp=55°C run=4
.step temp=60°C run=4
.step temp=0°C run=5
.step temp=5°C run=5
.step temp=10°C run=5
.step temp=15°C run=5
.step temp=20°C run=5
.step temp=25°C run=5
.step temp=30°C run=5
.step temp=35°C run=5
.step temp=40°C run=5
.step temp=45°C run=5
.step temp=50°C run=5
.step temp=55°C run=5
.step temp=60°C run=5
.step temp=0°C run=6
.step temp=5°C run=6
.step temp=10°C run=6
.step temp=15°C run=6
.step temp=20°C run=6
.step temp=25°C run=6
.step temp=30°C run=6
.step temp=35°C run=6
.step temp=40°C run=6
.step temp=45°C run=6
.step temp=50°C run=6
.step temp=55°C run=6
.step temp=60°C run=6
.step temp=0°C run=7
.step temp=5°C run=7
.step temp=10°C run=7
.step temp=15°C run=7
.step temp=20°C run=7
.step temp=25°C run=7
.step temp=30°C run=7
.step temp=35°C run=7
.step temp=40°C run=7
.step temp=45°C run=7
.step temp=50°C run=7
.step temp=55°C run=7
.step temp=60°C run=7
.step temp=0°C run=8
.step temp=5°C run=8
.step temp=10°C run=8
.step temp=15°C run=8
.step temp=20°C run=8
.step temp=25°C run=8
.step temp=30°C run=8
.step temp=35°C run=8
.step temp=40°C run=8
.step temp=45°C run=8
.step temp=50°C run=8
.step temp=55°C run=8
.step temp=60°C run=8
.step temp=0°C run=9
.step temp=5°C run=9
.step temp=10°C run=9
.step temp=15°C run=9
.step temp=20°C run=9
.step temp=25°C run=9
.step temp=30°C run=9
.step temp=35°C run=9
.step temp=40°C run=9
.step temp=45°C run=9
.step temp=50°C run=9
.step temp=55°C run=9
.step temp=60°C run=9
.step temp=0°C run=10
.step temp=5°C run=10
.step temp=10°C run=10
.step temp=15°C run=10
.step temp=20°C run=10
.step temp=25°C run=10
.step temp=30°C run=10
.step temp=35°C run=10
.step temp=40°C run=10
.step temp=45°C run=10
.step temp=50°C run=10
.step temp=55°C run=10
.step temp=60°C run=10
.step temp=0°C run=11
.step temp=5°C run=11
.step temp=10°C run=11
.step temp=15°C run=11
.step temp=20°C run=11
.step temp=25°C run=11
.step temp=30°C run=11
.step temp=35°C run=11
.step temp=40°C run=11
.step temp=45°C run=11
.step temp=50°C run=11
.step temp=55°C run=11
.step temp=60°C run=11
.step temp=0°C run=12
.step temp=5°C run=12
.step temp=10°C run=12
.step temp=15°C run=12
.step temp=20°C run=12
.step temp=25°C run=12
.step temp=30°C run=12
.step temp=35°C run=12
.step temp=40°C run=12
.step temp=45°C run=12
.step temp=50°C run=12
.step temp=55°C run=12
.step temp=60°C run=12
.step temp=0°C run=13
.step temp=5°C run=13
.step temp=10°C run=13
.step temp=15°C run=13
.step temp=20°C run=13
.step temp=25°C run=13
.step temp=30°C run=13
.step temp=35°C run=13
.step temp=40°C run=13
.step temp=45°C run=13
.step temp=50°C run=13
.step temp=55°C run=13
.step temp=60°C run=13
.step temp=0°C run=14
.step temp=5°C run=14
.step temp=10°C run=14
.step temp=15°C run=14
.step temp=20°C run=14
.step temp=25°C run=14
.step temp=30°C run=14
.step temp=35°C run=14
.step temp=40°C run=14
.step temp=45°C run=14
.step temp=50°C run=14
.step temp=55°C run=14
.step temp=60°C run=14
.step temp=0°C run=15
.step temp=5°C run=15
.step temp=10°C run=15
.step temp=15°C run=15
.step temp=20°C run=15
.step temp=25°C run=15
.step temp=30°C run=15
.step temp=35°C run=15
.step temp=40°C run=15
.step temp=45°C run=15
.step temp=50°C run=15
.step temp=55°C run=15
.step temp=60°C run=15
.step temp=0°C run=16
.step temp=5°C run=16
.step temp=10°C run=16
.step temp=15°C run=16
.step temp=20°C run=16
.step temp=25°C run=16
.step temp=30°C run=16
.step temp=35°C run=16
.step temp=40°C run=16
.step temp=45°C run=16
.step temp=50°C run=16
.step temp=55°C run=16
.step temp=60°C run=16
.step temp=0°C run=17
.step temp=5°C run=17
.step temp=10°C run=17
.step temp=15°C run=17
.step temp=20°C run=17
.step temp=25°C run=17
.step temp=30°C run=17
.step temp=35°C run=17
.step temp=40°C run=17
.step temp=45°C run=17
.step temp=50°C run=17
.step temp=55°C run=17
.step temp=60°C run=17
.step temp=0°C run=18
.step temp=5°C run=18
.step temp=10°C run=18
.step temp=15°C run=18
.step temp=20°C run=18
.step temp=25°C run=18
.step temp=30°C run=18
.step temp=35°C run=18
.step temp=40°C run=18
.step temp=45°C run=18
.step temp=50°C run=18
.step temp=55°C run=18
.step temp=60°C run=18
.step temp=0°C run=19
.step temp=5°C run=19
.step temp=10°C run=19
.step temp=15°C run=19
.step temp=20°C run=19
.step temp=25°C run=19
.step temp=30°C run=19
.step temp=35°C run=19
.step temp=40°C run=19
.step temp=45°C run=19
.step temp=50°C run=19
.step temp=55°C run=19
.step temp=60°C run=19
.step temp=0°C run=20
.step temp=5°C run=20
.step temp=10°C run=20
.step temp=15°C run=20
.step temp=20°C run=20
.step temp=25°C run=20
.step temp=30°C run=20
.step temp=35°C run=20
.step temp=40°C run=20
.step temp=45°C run=20
.step temp=50°C run=20
.step temp=55°C run=20
.step temp=60°C run=20
.step temp=0°C run=21
.step temp=5°C run=21
.step temp=10°C run=21
.step temp=15°C run=21
.step temp=20°C run=21
.step temp=25°C run=21
.step temp=30°C run=21
.step temp=35°C run=21
.step temp=40°C run=21
.step temp=45°C run=21
.step temp=50°C run=21
.step temp=55°C run=21
.step temp=60°C run=21
.step temp=0°C run=22
.step temp=5°C run=22
.step temp=10°C run=22
.step temp=15°C run=22
.step temp=20°C run=22
.step temp=25°C run=22
.step temp=30°C run=22
.step temp=35°C run=22
.step temp=40°C run=22
.step temp=45°C run=22
.step temp=50°C run=22
.step temp=55°C run=22
.step temp=60°C run=22
.step temp=0°C run=23
.step temp=5°C run=23
.step temp=10°C run=23
.step temp=15°C run=23
.step temp=20°C run=23
.step temp=25°C run=23
.step temp=30°C run=23
.step temp=35°C run=23
.step temp=40°C run=23
.step temp=45°C run=23
.step temp=50°C run=23
.step temp=55°C run=23
.step temp=60°C run=23
.step temp=0°C run=24
.step temp=5°C run=24
.step temp=10°C run=24
.step temp=15°C run=24
.step temp=20°C run=24
.step temp=25°C run=24
.step temp=30°C run=24
.step temp=35°C run=24
.step temp=40°C run=24
.step temp=45°C run=24
.step temp=50°C run=24
.step temp=55°C run=24
.step temp=60°C run=24
.step temp=0°C run=25
.step temp=5°C run=25
.step temp=10°C run=25
.step temp=15°C run=25
.step temp=20°C run=25
.step temp=25°C run=25
.step temp=30°C run=25
.step temp=35°C run=25
.step temp=40°C run=25
.step temp=45°C run=25
.step temp=50°C run=25
.step temp=55°C run=25
.step temp=60°C run=25
.step temp=0°C run=26
.step temp=5°C run=26
.step temp=10°C run=26
.step temp=15°C run=26
.step temp=20°C run=26
.step temp=25°C run=26
.step temp=30°C run=26
.step temp=35°C run=26
.step temp=40°C run=26
.step temp=45°C run=26
.step temp=50°C run=26
.step temp=55°C run=26
.step temp=60°C run=26
.step temp=0°C run=27
.step temp=5°C run=27
.step temp=10°C run=27
.step temp=15°C run=27
.step temp=20°C run=27
.step temp=25°C run=27
.step temp=30°C run=27
.step temp=35°C run=27
.step temp=40°C run=27
.step temp=45°C run=27
.step temp=50°C run=27
.step temp=55°C run=27
.step temp=60°C run=27
.step temp=0°C run=28
.step temp=5°C run=28
.step temp=10°C run=28
.step temp=15°C run=28
.step temp=20°C run=28
.step temp=25°C run=28
.step temp=30°C run=28
.step temp=35°C run=28
.step temp=40°C run=28
.step temp=45°C run=28
.step temp=50°C run=28
.step temp=55°C run=28
.step temp=60°C run=28
.step temp=0°C run=29
.step temp=5°C run=29
.step temp=10°C run=29
.step temp=15°C run=29
.step temp=20°C run=29
.step temp=25°C run=29
.step temp=30°C run=29
.step temp=35°C run=29
.step temp=40°C run=29
.step temp=45°C run=29
.step temp=50°C run=29
.step temp=55°C run=29
.step temp=60°C run=29
.step temp=0°C run=30
.step temp=5°C run=30
.step temp=10°C run=30
.step temp=15°C run=30
.step temp=20°C run=30
.step temp=25°C run=30
.step temp=30°C run=30
.step temp=35°C run=30
.step temp=40°C run=30
.step temp=45°C run=30
.step temp=50°C run=30
.step temp=55°C run=30
.step temp=60°C run=30
.step temp=0°C run=31
.step temp=5°C run=31
.step temp=10°C run=31
.step temp=15°C run=31
.step temp=20°C run=31
.step temp=25°C run=31
.step temp=30°C run=31
.step temp=35°C run=31
.step temp=40°C run=31
.step temp=45°C run=31
.step temp=50°C run=31
.step temp=55°C run=31
.step temp=60°C run=31
.step temp=0°C run=32
.step temp=5°C run=32
.step temp=10°C run=32
.step temp=15°C run=32
.step temp=20°C run=32
.step temp=25°C run=32
.step temp=30°C run=32
.step temp=35°C run=32
.step temp=40°C run=32
.step temp=45°C run=32
.step temp=50°C run=32
.step temp=55°C run=32
.step temp=60°C run=32
.step temp=0°C run=33
.step temp=5°C run=33
.step temp=10°C run=33
.step temp=15°C run=33
.step temp=20°C run=33
.step temp=25°C run=33
.step temp=30°C run=33
.step temp=35°C run=33
.step temp=40°C run=33
.step temp=45°C run=33
.step temp=50°C run=33
.step temp=55°C run=33
.step temp=60°C run=33
.step temp=0°C run=34
.step temp=5°C run=34
.step temp=10°C run=34
.step temp=15°C run=34
.step temp=20°C run=34
.step temp=25°C run=34
.step temp=30°C run=34
.step temp=35°C run=34
.step temp=40°C run=34
.step temp=45°C run=34
.step temp=50°C run=34
.step temp=55°C run=34
.step temp=60°C run=34
.step temp=0°C run=35
.step temp=5°C run=35
.step temp=10°C run=35
.step temp=15°C run=35
.step temp=20°C run=35
.step temp=25°C run=35
.step temp=30°C run=35
.step temp=35°C run=35
.step temp=40°C run=35
.step temp=45°C run=35
.step temp=50°C run=35
.step temp=55°C run=35
.step temp=60°C run=35
.step temp=0°C run=36
.step temp=5°C run=36
.step temp=10°C run=36
.step temp=15°C run=36
.step temp=20°C run=36
.step temp=25°C run=36
.step temp=30°C run=36
.step temp=35°C run=36
.step temp=40°C run=36
.step temp=45°C run=36
.step temp=50°C run=36
.step temp=55°C run=36
.step temp=60°C run=36
.step temp=0°C run=37
.step temp=5°C run=37
.step temp=10°C run=37
.step temp=15°C run=37
.step temp=20°C run=37
.step temp=25°C run=37
.step temp=30°C run=37
.step temp=35°C run=37
.step temp=40°C run=37
.step temp=45°C run=37
.step temp=50°C run=37
.step temp=55°C run=37
.step temp=60°C run=37
.step temp=0°C run=38
.step temp=5°C run=38
.step temp=10°C run=38
.step temp=15°C run=38
.step temp=20°C run=38
.step temp=25°C run=38
.step temp=30°C run=38
.step temp=35°C run=38
.step temp=40°C run=38
.step temp=45°C run=38
.step temp=50°C run=38
.step temp=55°C run=38
.step temp=60°C run=38
.step temp=0°C run=39
.step temp=5°C run=39
.step temp=10°C run=39
.step temp=15°C run=39
.step temp=20°C run=39
.step temp=25°C run=39
.step temp=30°C run=39
.step temp=35°C run=39
.step temp=40°C run=39
.step temp=45°C run=39
.step temp=50°C run=39
.step temp=55°C run=39
.step temp=60°C run=39
.step temp=0°C run=40
.step temp=5°C run=40
.step temp=10°C run=40
.step temp=15°C run=40
.step temp=20°C run=40
.step temp=25°C run=40
.step temp=30°C run=40
.step temp=35°C run=40
.step temp=40°C run=40
.step temp=45°C run=40
.step temp=50°C run=40
.step temp=55°C run=40
.step temp=60°C run=40
.step temp=0°C run=41
.step temp=5°C run=41
.step temp=10°C run=41
.step temp=15°C run=41
.step temp=20°C run=41
.step temp=25°C run=41
.step temp=30°C run=41
.step temp=35°C run=41
.step temp=40°C run=41
.step temp=45°C run=41
.step temp=50°C run=41
.step temp=55°C run=41
.step temp=60°C run=41
.step temp=0°C run=42
.step temp=5°C run=42
.step temp=10°C run=42
.step temp=15°C run=42
.step temp=20°C run=42
.step temp=25°C run=42
.step temp=30°C run=42
.step temp=35°C run=42
.step temp=40°C run=42
.step temp=45°C run=42
.step temp=50°C run=42
.step temp=55°C run=42
.step temp=60°C run=42
.step temp=0°C run=43
.step temp=5°C run=43
.step temp=10°C run=43
.step temp=15°C run=43
.step temp=20°C run=43
.step temp=25°C run=43
.step temp=30°C run=43
.step temp=35°C run=43
.step temp=40°C run=43
.step temp=45°C run=43
.step temp=50°C run=43
.step temp=55°C run=43
.step temp=60°C run=43
.step temp=0°C run=44
.step temp=5°C run=44
.step temp=10°C run=44
.step temp=15°C run=44
.step temp=20°C run=44
.step temp=25°C run=44
.step temp=30°C run=44
.step temp=35°C run=44
.step temp=40°C run=44
.step temp=45°C run=44
.step temp=50°C run=44
.step temp=55°C run=44
.step temp=60°C run=44
.step temp=0°C run=45
.step temp=5°C run=45
.step temp=10°C run=45
.step temp=15°C run=45
.step temp=20°C run=45
.step temp=25°C run=45
.step temp=30°C run=45
.step temp=35°C run=45
.step temp=40°C run=45
.step temp=45°C run=45
.step temp=50°C run=45
.step temp=55°C run=45
.step temp=60°C run=45
.step temp=0°C run=46
.step temp=5°C run=46
.step temp=10°C run=46
.step temp=15°C run=46
.step temp=20°C run=46
.step temp=25°C run=46
.step temp=30°C run=46
.step temp=35°C run=46
.step temp=40°C run=46
.step temp=45°C run=46
.step temp=50°C run=46
.step temp=55°C run=46
.step temp=60°C run=46
.step temp=0°C run=47
.step temp=5°C run=47
.step temp=10°C run=47
.step temp=15°C run=47
.step temp=20°C run=47
.step temp=25°C run=47
.step temp=30°C run=47
.step temp=35°C run=47
.step temp=40°C run=47
.step temp=45°C run=47
.step temp=50°C run=47
.step temp=55°C run=47
.step temp=60°C run=47
.step temp=0°C run=48
.step temp=5°C run=48
.step temp=10°C run=48
.step temp=15°C run=48
.step temp=20°C run=48
.step temp=25°C run=48
.step temp=30°C run=48
.step temp=35°C run=48
.step temp=40°C run=48
.step temp=45°C run=48
.step temp=50°C run=48
.step temp=55°C run=48
.step temp=60°C run=48
.step temp=0°C run=49
.step temp=5°C run=49
.step temp=10°C run=49
.step temp=15°C run=49
.step temp=20°C run=49
.step temp=25°C run=49
.step temp=30°C run=49
.step temp=35°C run=49
.step temp=40°C run=49
.step temp=45°C run=49
.step temp=50°C run=49
.step temp=55°C run=49
.step temp=60°C run=49
.step temp=0°C run=50
.step temp=5°C run=50
.step temp=10°C run=50
.step temp=15°C run=50
.step temp=20°C run=50
.step temp=25°C run=50
.step temp=30°C run=50
.step temp=35°C run=50
.step temp=40°C run=50
.step temp=45°C run=50
.step temp=50°C run=50
.step temp=55°C run=50
.step temp=60°C run=50
.step temp=0°C run=51
.step temp=5°C run=51
.step temp=10°C run=51
.step temp=15°C run=51
.step temp=20°C run=51
.step temp=25°C run=51
.step temp=30°C run=51
.step temp=35°C run=51
.step temp=40°C run=51
.step temp=45°C run=51
.step temp=50°C run=51
.step temp=55°C run=51
.step temp=60°C run=51
.step temp=0°C run=52
.step temp=5°C run=52
.step temp=10°C run=52
.step temp=15°C run=52
.step temp=20°C run=52
.step temp=25°C run=52
.step temp=30°C run=52
.step temp=35°C run=52
.step temp=40°C run=52
.step temp=45°C run=52
.step temp=50°C run=52
.step temp=55°C run=52
.step temp=60°C run=52
.step temp=0°C run=53
.step temp=5°C run=53
.step temp=10°C run=53
.step temp=15°C run=53
.step temp=20°C run=53
.step temp=25°C run=53
.step temp=30°C run=53
.step temp=35°C run=53
.step temp=40°C run=53
.step temp=45°C run=53
.step temp=50°C run=53
.step temp=55°C run=53
.step temp=60°C run=53
.step temp=0°C run=54
.step temp=5°C run=54
.step temp=10°C run=54
.step temp=15°C run=54
.step temp=20°C run=54
.step temp=25°C run=54
.step temp=30°C run=54
.step temp=35°C run=54
.step temp=40°C run=54
.step temp=45°C run=54
.step temp=50°C run=54
.step temp=55°C run=54
.step temp=60°C run=54
.step temp=0°C run=55
.step temp=5°C run=55
.step temp=10°C run=55
.step temp=15°C run=55
.step temp=20°C run=55
.step temp=25°C run=55
.step temp=30°C run=55
.step temp=35°C run=55
.step temp=40°C run=55
.step temp=45°C run=55
.step temp=50°C run=55
.step temp=55°C run=55
.step temp=60°C run=55
.step temp=0°C run=56
.step temp=5°C run=56
.step temp=10°C run=56
.step temp=15°C run=56
.step temp=20°C run=56
.step temp=25°C run=56
.step temp=30°C run=56
.step temp=35°C run=56
.step temp=40°C run=56
.step temp=45°C run=56
.step temp=50°C run=56
.step temp=55°C run=56
.step temp=60°C run=56
.step temp=0°C run=57
.step temp=5°C run=57
.step temp=10°C run=57
.step temp=15°C run=57
.step temp=20°C run=57
.step temp=25°C run=57
.step temp=30°C run=57
.step temp=35°C run=57
.step temp=40°C run=57
.step temp=45°C run=57
.step temp=50°C run=57
.step temp=55°C run=57
.step temp=60°C run=57
.step temp=0°C run=58
.step temp=5°C run=58
.step temp=10°C run=58
.step temp=15°C run=58
.step temp=20°C run=58
.step temp=25°C run=58
.step temp=30°C run=58
.step temp=35°C run=58
.step temp=40°C run=58
.step temp=45°C run=58
.step temp=50°C run=58
.step temp=55°C run=58
.step temp=60°C run=58
.step temp=0°C run=59
.step temp=5°C run=59
.step temp=10°C run=59
.step temp=15°C run=59
.step temp=20°C run=59
.step temp=25°C run=59
.step temp=30°C run=59
.step temp=35°C run=59
.step temp=40°C run=59
.step temp=45°C run=59
.step temp=50°C run=59
.step temp=55°C run=59
.step temp=60°C run=59
.step temp=0°C run=60
.step temp=5°C run=60
.step temp=10°C run=60
.step temp=15°C run=60
.step temp=20°C run=60
.step temp=25°C run=60
.step temp=30°C run=60
.step temp=35°C run=60
.step temp=40°C run=60
.step temp=45°C run=60
.step temp=50°C run=60
.step temp=55°C run=60
.step temp=60°C run=60
.step temp=0°C run=61
.step temp=5°C run=61
.step temp=10°C run=61
.step temp=15°C run=61
.step temp=20°C run=61
.step temp=25°C run=61
.step temp=30°C run=61
.step temp=35°C run=61
.step temp=40°C run=61
.step temp=45°C run=61
.step temp=50°C run=61
.step temp=55°C run=61
.step temp=60°C run=61
.step temp=0°C run=62
.step temp=5°C run=62
.step temp=10°C run=62
.step temp=15°C run=62
.step temp=20°C run=62
.step temp=25°C run=62
.step temp=30°C run=62
.step temp=35°C run=62
.step temp=40°C run=62
.step temp=45°C run=62
.step temp=50°C run=62
.step temp=55°C run=62
.step temp=60°C run=62
.step temp=0°C run=63
.step temp=5°C run=63
.step temp=10°C run=63
.step temp=15°C run=63
.step temp=20°C run=63
.step temp=25°C run=63
.step temp=30°C run=63
.step temp=35°C run=63
.step temp=40°C run=63
.step temp=45°C run=63
.step temp=50°C run=63
.step temp=55°C run=63
.step temp=60°C run=63
.step temp=0°C run=64
.step temp=5°C run=64
.step temp=10°C run=64
.step temp=15°C run=64
.step temp=20°C run=64
.step temp=25°C run=64
.step temp=30°C run=64
.step temp=35°C run=64
.step temp=40°C run=64
.step temp=45°C run=64
.step temp=50°C run=64
.step temp=55°C run=64
.step temp=60°C run=64
.step temp=0°C run=65
.step temp=5°C run=65
.step temp=10°C run=65
.step temp=15°C run=65
.step temp=20°C run=65
.step temp=25°C run=65
.step temp=30°C run=65
.step temp=35°C run=65
.step temp=40°C run=65
.step temp=45°C run=65
.step temp=50°C run=65
.step temp=55°C run=65
.step temp=60°C run=65
.step temp=0°C run=66
.step temp=5°C run=66
.step temp=10°C run=66
.step temp=15°C run=66
.step temp=20°C run=66
.step temp=25°C run=66
.step temp=30°C run=66
.step temp=35°C run=66
.step temp=40°C run=66
.step temp=45°C run=66
.step temp=50°C run=66
.step temp=55°C run=66
.step temp=60°C run=66
.step temp=0°C run=67
.step temp=5°C run=67
.step temp=10°C run=67
.step temp=15°C run=67
.step temp=20°C run=67
.step temp=25°C run=67
.step temp=30°C run=67
.step temp=35°C run=67
.step temp=40°C run=67
.step temp=45°C run=67
.step temp=50°C run=67
.step temp=55°C run=67
.step temp=60°C run=67
.step temp=0°C run=68
.step temp=5°C run=68
.step temp=10°C run=68
.step temp=15°C run=68
.step temp=20°C run=68
.step temp=25°C run=68
.step temp=30°C run=68
.step temp=35°C run=68
.step temp=40°C run=68
.step temp=45°C run=68
.step temp=50°C run=68
.step temp=55°C run=68
.step temp=60°C run=68
.step temp=0°C run=69
.step temp=5°C run=69
.step temp=10°C run=69
.step temp=15°C run=69
.step temp=20°C run=69
.step temp=25°C run=69
.step temp=30°C run=69
.step temp=35°C run=69
.step temp=40°C run=69
.step temp=45°C run=69
.step temp=50°C run=69
.step temp=55°C run=69
.step temp=60°C run=69
.step temp=0°C run=70
.step temp=5°C run=70
.step temp=10°C run=70
.step temp=15°C run=70
.step temp=20°C run=70
.step temp=25°C run=70
.step temp=30°C run=70
.step temp=35°C run=70
.step temp=40°C run=70
.step temp=45°C run=70
.step temp=50°C run=70
.step temp=55°C run=70
.step temp=60°C run=70
.step temp=0°C run=71
.step temp=5°C run=71
.step temp=10°C run=71
.step temp=15°C run=71
.step temp=20°C run=71
.step temp=25°C run=71
.step temp=30°C run=71
.step temp=35°C run=71
.step temp=40°C run=71
.step temp=45°C run=71
.step temp=50°C run=71
.step temp=55°C run=71
.step temp=60°C run=71
.step temp=0°C run=72
.step temp=5°C run=72
.step temp=10°C run=72
.step temp=15°C run=72
.step temp=20°C run=72
.step temp=25°C run=72
.step temp=30°C run=72
.step temp=35°C run=72
.step temp=40°C run=72
.step temp=45°C run=72
.step temp=50°C run=72
.step temp=55°C run=72
.step temp=60°C run=72
.step temp=0°C run=73
.step temp=5°C run=73
.step temp=10°C run=73
.step temp=15°C run=73
.step temp=20°C run=73
.step temp=25°C run=73
.step temp=30°C run=73
.step temp=35°C run=73
.step temp=40°C run=73
.step temp=45°C run=73
.step temp=50°C run=73
.step temp=55°C run=73
.step temp=60°C run=73
.step temp=0°C run=74
.step temp=5°C run=74
.step temp=10°C run=74
.step temp=15°C run=74
.step temp=20°C run=74
.step temp=25°C run=74
.step temp=30°C run=74
.step temp=35°C run=74
.step temp=40°C run=74
.step temp=45°C run=74
.step temp=50°C run=74
.step temp=55°C run=74
.step temp=60°C run=74
.step temp=0°C run=75
.step temp=5°C run=75
.step temp=10°C run=75
.step temp=15°C run=75
.step temp=20°C run=75
.step temp=25°C run=75
.step temp=30°C run=75
.step temp=35°C run=75
.step temp=40°C run=75
.step temp=45°C run=75
.step temp=50°C run=75
.step temp=55°C run=75
.step temp=60°C run=75
.step temp=0°C run=76
.step temp=5°C run=76
.step temp=10°C run=76
.step temp=15°C run=76
.step temp=20°C run=76
.step temp=25°C run=76
.step temp=30°C run=76
.step temp=35°C run=76
.step temp=40°C run=76
.step temp=45°C run=76
.step temp=50°C run=76
.step temp=55°C run=76
.step temp=60°C run=76
.step temp=0°C run=77
.step temp=5°C run=77
.step temp=10°C run=77
.step temp=15°C run=77
.step temp=20°C run=77
.step temp=25°C run=77
.step temp=30°C run=77
.step temp=35°C run=77
.step temp=40°C run=77
.step temp=45°C run=77
.step temp=50°C run=77
.step temp=55°C run=77
.step temp=60°C run=77
.step temp=0°C run=78
.step temp=5°C run=78
.step temp=10°C run=78
.step temp=15°C run=78
.step temp=20°C run=78
.step temp=25°C run=78
.step temp=30°C run=78
.step temp=35°C run=78
.step temp=40°C run=78
.step temp=45°C run=78
.step temp=50°C run=78
.step temp=55°C run=78
.step temp=60°C run=78
.step temp=0°C run=79
.step temp=5°C run=79
.step temp=10°C run=79
.step temp=15°C run=79
.step temp=20°C run=79
.step temp=25°C run=79
.step temp=30°C run=79
.step temp=35°C run=79
.step temp=40°C run=79
.step temp=45°C run=79
.step temp=50°C run=79
.step temp=55°C run=79
.step temp=60°C run=79
.step temp=0°C run=80
.step temp=5°C run=80
.step temp=10°C run=80
.step temp=15°C run=80
.step temp=20°C run=80
.step temp=25°C run=80
.step temp=30°C run=80
.step temp=35°C run=80
.step temp=40°C run=80
.step temp=45°C run=80
.step temp=50°C run=80
.step temp=55°C run=80
.step temp=60°C run=80
.step temp=0°C run=81
.step temp=5°C run=81
.step temp=10°C run=81
.step temp=15°C run=81
.step temp=20°C run=81
.step temp=25°C run=81
.step temp=30°C run=81
.step temp=35°C run=81
.step temp=40°C run=81
.step temp=45°C run=81
.step temp=50°C run=81
.step temp=55°C run=81
.step temp=60°C run=81
.step temp=0°C run=82
.step temp=5°C run=82
.step temp=10°C run=82
.step temp=15°C run=82
.step temp=20°C run=82
.step temp=25°C run=82
.step temp=30°C run=82
.step temp=35°C run=82
.step temp=40°C run=82
.step temp=45°C run=82
.step temp=50°C run=82
.step temp=55°C run=82
.step temp=60°C run=82
.step temp=0°C run=83
.step temp=5°C run=83
.step temp=10°C run=83
.step temp=15°C run=83
.step temp=20°C run=83
.step temp=25°C run=83
.step temp=30°C run=83
.step temp=35°C run=83
.step temp=40°C run=83
.step temp=45°C run=83
.step temp=50°C run=83
.step temp=55°C run=83
.step temp=60°C run=83
.step temp=0°C run=84
.step temp=5°C run=84
.step temp=10°C run=84
.step temp=15°C run=84
.step temp=20°C run=84
.step temp=25°C run=84
.step temp=30°C run=84
.step temp=35°C run=84
.step temp=40°C run=84
.step temp=45°C run=84
.step temp=50°C run=84
.step temp=55°C run=84
.step temp=60°C run=84
.step temp=0°C run=85
.step temp=5°C run=85
.step temp=10°C run=85
.step temp=15°C run=85
.step temp=20°C run=85
.step temp=25°C run=85
.step temp=30°C run=85
.step temp=35°C run=85
.step temp=40°C run=85
.step temp=45°C run=85
.step temp=50°C run=85
.step temp=55°C run=85
.step temp=60°C run=85
.step temp=0°C run=86
.step temp=5°C run=86
.step temp=10°C run=86
.step temp=15°C run=86
.step temp=20°C run=86
.step temp=25°C run=86
.step temp=30°C run=86
.step temp=35°C run=86
.step temp=40°C run=86
.step temp=45°C run=86
.step temp=50°C run=86
.step temp=55°C run=86
.step temp=60°C run=86
.step temp=0°C run=87
.step temp=5°C run=87
.step temp=10°C run=87
.step temp=15°C run=87
.step temp=20°C run=87
.step temp=25°C run=87
.step temp=30°C run=87
.step temp=35°C run=87
.step temp=40°C run=87
.step temp=45°C run=87
.step temp=50°C run=87
.step temp=55°C run=87
.step temp=60°C run=87
.step temp=0°C run=88
.step temp=5°C run=88
.step temp=10°C run=88
.step temp=15°C run=88
.step temp=20°C run=88
.step temp=25°C run=88
.step temp=30°C run=88
.step temp=35°C run=88
.step temp=40°C run=88
.step temp=45°C run=88
.step temp=50°C run=88
.step temp=55°C run=88
.step temp=60°C run=88
.step temp=0°C run=89
.step temp=5°C run=89
.step temp=10°C run=89
.step temp=15°C run=89
.step temp=20°C run=89
.step temp=25°C run=89
.step temp=30°C run=89
.step temp=35°C run=89
.step temp=40°C run=89
.step temp=45°C run=89
.step temp=50°C run=89
.step temp=55°C run=89
.step temp=60°C run=89
.step temp=0°C run=90
.step temp=5°C run=90
.step temp=10°C run=90
.step temp=15°C run=90
.step temp=20°C run=90
.step temp=25°C run=90
.step temp=30°C run=90
.step temp=35°C run=90
.step temp=40°C run=90
.step temp=45°C run=90
.step temp=50°C run=90
.step temp=55°C run=90
.step temp=60°C run=90
.step temp=0°C run=91
.step temp=5°C run=91
.step temp=10°C run=91
.step temp=15°C run=91
.step temp=20°C run=91
.step temp=25°C run=91
.step temp=30°C run=91
.step temp=35°C run=91
.step temp=40°C run=91
.step temp=45°C run=91
.step temp=50°C run=91
.step temp=55°C run=91
.step temp=60°C run=91
.step temp=0°C run=92
.step temp=5°C run=92
.step temp=10°C run=92
.step temp=15°C run=92
.step temp=20°C run=92
.step temp=25°C run=92
.step temp=30°C run=92
.step temp=35°C run=92
.step temp=40°C run=92
.step temp=45°C run=92
.step temp=50°C run=92
.step temp=55°C run=92
.step temp=60°C run=92
.step temp=0°C run=93
.step temp=5°C run=93
.step temp=10°C run=93
.step temp=15°C run=93
.step temp=20°C run=93
.step temp=25°C run=93
.step temp=30°C run=93
.step temp=35°C run=93
.step temp=40°C run=93
.step temp=45°C run=93
.step temp=50°C run=93
.step temp=55°C run=93
.step temp=60°C run=93
.step temp=0°C run=94
.step temp=5°C run=94
.step temp=10°C run=94
.step temp=15°C run=94
.step temp=20°C run=94
.step temp=25°C run=94
.step temp=30°C run=94
.step temp=35°C run=94
.step temp=40°C run=94
.step temp=45°C run=94
.step temp=50°C run=94
.step temp=55°C run=94
.step temp=60°C run=94
.step temp=0°C run=95
.step temp=5°C run=95
.step temp=10°C run=95
.step temp=15°C run=95
.step temp=20°C run=95
.step temp=25°C run=95
.step temp=30°C run=95
.step temp=35°C run=95
.step temp=40°C run=95
.step temp=45°C run=95
.step temp=50°C run=95
.step temp=55°C run=95
.step temp=60°C run=95
.step temp=0°C run=96
.step temp=5°C run=96
.step temp=10°C run=96
.step temp=15°C run=96
.step temp=20°C run=96
.step temp=25°C run=96
.step temp=30°C run=96
.step temp=35°C run=96
.step temp=40°C run=96
.step temp=45°C run=96
.step temp=50°C run=96
.step temp=55°C run=96
.step temp=60°C run=96
.step temp=0°C run=97
.step temp=5°C run=97
.step temp=10°C run=97
.step temp=15°C run=97
.step temp=20°C run=97
.step temp=25°C run=97
.step temp=30°C run=97
.step temp=35°C run=97
.step temp=40°C run=97
.step temp=45°C run=97
.step temp=50°C run=97
.step temp=55°C run=97
.step temp=60°C run=97
.step temp=0°C run=98
.step temp=5°C run=98
.step temp=10°C run=98
.step temp=15°C run=98
.step temp=20°C run=98
.step temp=25°C run=98
.step temp=30°C run=98
.step temp=35°C run=98
.step temp=40°C run=98
.step temp=45°C run=98
.step temp=50°C run=98
.step temp=55°C run=98
.step temp=60°C run=98
.step temp=0°C run=99
.step temp=5°C run=99
.step temp=10°C run=99
.step temp=15°C run=99
.step temp=20°C run=99
.step temp=25°C run=99
.step temp=30°C run=99
.step temp=35°C run=99
.step temp=40°C run=99
.step temp=45°C run=99
.step temp=50°C run=99
.step temp=55°C run=99
.step temp=60°C run=99
.step temp=0°C run=100
.step temp=5°C run=100
.step temp=10°C run=100
.step temp=15°C run=100
.step temp=20°C run=100
.step temp=25°C run=100
.step temp=30°C run=100
.step temp=35°C run=100
.step temp=40°C run=100
.step temp=45°C run=100
.step temp=50°C run=100
.step temp=55°C run=100
.step temp=60°C run=100

Date: Mon May 11 18:07:28 2020
Total elapsed time: 98.729 seconds.

tnom = 27
temp = 60
method = trap
totiter = 532
traniter = 0
tranpoints = 0
accept = 0
rejected = 0
matrix size = 9
fillins = 0
solver = Normal
Matrix Compiler1: 376 bytes object code size  0.1/0.1/[0.1]
Matrix Compiler2: 627 bytes object code size  0.1/0.1/[0.1]

